  5
#Generated by chemFileConvert.py
  C                  0.0002360     0.0000040     0.0000020
  H                 -0.3555600    -0.4457890     0.9292970
  H                 -0.3659890     1.0243310    -0.0745320
  H                 -0.3700890    -0.5801200    -0.8457390
  H                  1.0902240     0.0015530    -0.0090400
