  8
#Generated by chemFileConvert.py
  C                  0.0901110     0.1256610    -0.0006000
  O                  0.6574530     1.2034920     0.0001100
  O                  0.7645440    -1.0585160    -0.0000760
  H                  1.7137310    -0.8171840     0.0013030
  C                 -1.3945180    -0.1003110    -0.0000980
  H                 -1.9040560     0.8615770    -0.0148950
  H                 -1.6785790    -0.6920150    -0.8731890
  H                 -1.6806310    -0.6642840     0.8906910
