 11
#Generated by chemFileConvert.py
  N                  0.0000070     1.4263630    -0.0000270
  C                  1.1454080     0.7211130    -0.0000270
  H                  2.0620700     1.3085300     0.0002900
  C                  1.1977090    -0.6737460    -0.0000200
  H                  2.1568670    -1.1842320     0.0001540
  C                 -0.0000070    -1.3877840    -0.0000410
  H                 -0.0000130    -2.4750110     0.0001390
  C                 -1.1977160    -0.6737350    -0.0000180
  H                 -2.1568770    -1.1842140     0.0001640
  C                 -1.1454010     0.7211250    -0.0000380
  H                 -2.0620580     1.3085500     0.0003070
