  6
#Generated by chemFileConvert.py
  C                 -1.1514740     0.0189380     0.0000000
  S                  0.6615660    -0.0865840     0.0000000
  H                  0.8972680     1.2330000     0.0000410
  H                 -1.5244520     0.5227560    -0.8922320
  H                 -1.5245050    -1.0058990    -0.0005000
  H                 -1.5245280     0.5218550     0.8927100
