 10
#Generated by chemFileConvert.py
  C                  1.3418690    -0.8104050     0.1807640
  O                  0.0000100     1.5029040     0.3799780
  S                  0.0000000     0.2323190    -0.4386380
  C                 -1.3418780    -0.8103900     0.1807640
  H                  1.3059240    -1.7946100    -0.2933430
  H                  2.2816510    -0.3148530    -0.0691800
  H                  1.2585190    -0.8983510     1.2671320
  H                 -1.3059460    -1.7945940    -0.2933460
  H                 -1.2585290    -0.8983420     1.2671320
  H                 -2.2816550    -0.3148250    -0.0691770
