 12
#Generated by chemFileConvert.py
 Br                 -1.8067700     0.0000000    -0.0000600
  C                  0.1006220     0.0000530     0.0000060
  C                  0.7815690     1.2175950     0.0000440
  C                  0.7815260    -1.2175610     0.0000100
  C                  2.1776820     1.2083560     0.0000890
  C                  2.1776190    -1.2084040     0.0000560
  C                  2.8781420    -0.0000300     0.0000940
  H                  0.2284300     2.1526090     0.0000410
  H                  0.2282920    -2.1525150    -0.0000210
  H                  2.7160930     2.1530860     0.0001180
  H                  2.7160100    -2.1531480     0.0000600
  H                  3.9651640    -0.0000500     0.0001280
