  9
#Generated by chemFileConvert.py
  C                  1.3691010    -0.5140340     0.0000020
  C                 -1.3691010    -0.5140340     0.0000020
  S                  0.0000000     0.6644630    -0.0000020
  H                  1.3483140    -1.1453580    -0.8917230
  H                  2.2985940     0.0585020    -0.0005100
  H                  1.3488410    -1.1446440     0.8922380
  H                 -1.3483150    -1.1453560    -0.8917250
  H                 -1.3488400    -1.1446440     0.8922380
  H                 -2.2985940     0.0585020    -0.0005080
