 16
#Generated by chemFileConvert.py
  N                 -1.5631460    -1.0786450     0.0000020
  C                  0.9814170     1.4318910     0.0000000
  C                  2.1554110     0.6922200     0.0000020
  C                  2.1326810    -0.7203310    -0.0000050
  C                  0.9343870    -1.4220840     0.0000000
  C                 -0.2481830    -0.6706930     0.0000000
  C                 -0.2522510     0.7528300     0.0000150
  C                 -1.6207120     1.1681210    -0.0000080
  C                 -2.3885810     0.0265560    -0.0000050
  H                  1.0121500     2.5200250     0.0000050
  H                  3.1140070     1.2059840    -0.0000050
  H                  3.0718340    -1.2688090    -0.0000050
  H                  0.9183210    -2.5105470    -0.0000040
  H                 -1.9975130     2.1830700    -0.0000130
  H                 -1.8769340    -2.0399470     0.0000180
  H                 -3.4648550    -0.0903210     0.0000040
