  5
#Generated by chemFileConvert.py
 Cl                 -0.6566030     0.0000000     0.0000000
  C                  1.1229320     0.0000030    -0.0000230
  H                  1.4748470    -0.1110530     1.0242360
  H                  1.4749130    -0.8315830    -0.6082020
  H                  1.4748990     0.9426220    -0.4158890
