  8
#Generated by chemFileConvert.py
  N                  0.7090220    -0.0000240     0.0000000
  H                  1.0870090     0.4773310    -0.8288960
  H                  1.0870090     0.4793650     0.8277210
  H                  1.0871940    -0.9564710     0.0011740
  C                 -0.8006150    -0.0000100     0.0000000
  H                 -1.1402290    -0.5156710     0.8957280
  H                 -1.1402190     1.0335470    -0.0012690
  H                 -1.1402280    -0.5178690    -0.8944600
