  7
#Generated by chemFileConvert.py
  C                  1.3468810    -0.0622760     0.0000680
  C                 -0.2128060     0.0024820    -0.0005800
  O                 -0.8134880    -1.1094890     0.0001520
  O                 -0.6853290     1.1759020     0.0001500
  H                  1.7383940     0.4614830     0.8803630
  H                  1.7085910    -1.0953120     0.0003270
  H                  1.7390990     0.4612900    -0.8800270
