  6
#Generated by chemFileConvert.py
  C                  0.0000000     0.4225390     0.0000000
  H                 -0.4408170     1.4355830     0.0000000
  O                  1.2082730     0.2220110     0.0000000
  N                 -0.9482900    -0.5548660     0.0000000
  H                 -0.6534580    -1.5217170     0.0000000
  H                 -1.9338820    -0.3411310     0.0000000
