  5
#Generated by chemFileConvert.py
  C                  0.0000000     0.4245050     0.0000000
  H                 -0.3773750     1.4537240     0.0000000
  O                  1.1704280     0.1036740     0.0000000
  O                 -1.0419470    -0.4368220     0.0000000
  H                 -0.6504660    -1.3355670     0.0000000
