  9
#Generated by chemFileConvert.py
  C                  0.0784890     0.5600950     0.0474820
  C                 -1.2103460    -0.2423030    -0.0217610
  O                  1.2367980    -0.2609050    -0.1110110
  H                  0.1267890     1.2787770    -0.7736430
  H                  0.1272170     1.1296450     0.9866060
  H                 -2.0849510     0.4119050     0.0472240
  H                  1.2481260    -0.8835950     0.6350260
  H                 -1.2641960    -0.9621080     0.8017360
  H                 -1.2562270    -0.7941330    -0.9631930
