 12
#Generated by chemFileConvert.py
  C                 -2.1511020    -0.0065270     0.0000480
  C                 -0.6578330     0.0187880    -0.0000310
  C                  0.1863670     1.1106040    -0.0000190
  C                  1.3448400    -0.7705710    -0.0000450
  N                  0.0761070    -1.1507890    -0.0000380
  N                  1.4605000     0.5893150     0.0000860
  H                 -2.5302630    -0.5301450    -0.8821160
  H                 -2.5568780     1.0090980    -0.0003890
  H                  0.0003360     2.1751570    -0.0003990
  H                  2.2046270    -1.4277370     0.0000190
  H                  2.3225060     1.1195640     0.0001590
  H                 -2.5302120    -0.5293840     0.8826800
