 13
#Generated by chemFileConvert.py
  N                 -0.2981960    -1.1935180     0.0024800
  C                 -0.8989770     0.0078150    -0.0038810
  C                 -0.1842220     1.2188990    -0.0098900
  C                  1.2026080     1.1704100     0.0047310
  C                  1.8420610    -0.0727780     0.0063770
  C                  1.0476300    -1.2144680     0.0024310
  H                 -0.7133720     2.1685100    -0.0287310
  H                  1.7800030     2.0919190     0.0058730
  H                  2.9246290    -0.1531180     0.0135510
  H                  1.4978930    -2.2058730     0.0048570
  N                 -2.2904670    -0.0069960    -0.0835250
  H                 -2.7545740     0.7554310     0.3970350
  H                 -2.6685370    -0.9125390     0.1761140
