 12
#Generated by chemFileConvert.py
  O                 -2.3004000     0.0048630     0.0003410
  N                 -0.3010450    -1.1173380    -0.0002690
  C                  1.1207170     1.2010130     0.0000540
  C                  1.8075300    -0.0461910     0.0000640
  C                  1.0639000    -1.1911280     0.0001230
  C                 -1.0661860     0.0622010    -0.0003390
  C                 -0.2468550     1.2588270    -0.0001630
  H                  1.6948200     2.1249460     0.0001000
  H                  2.8897160    -0.0994500     0.0003790
  H                  1.4903610    -2.1891700     0.0001730
  H                 -0.7789320     2.2044920     0.0000230
  H                 -0.8600860    -1.9666840     0.0000480
