  6
#Generated by chemFileConvert.py
  N                 -0.0001600     0.0106870     1.4539870
  C                  0.0000110    -0.0087070    -1.1889250
  C                  0.0001420     0.0020510     0.2743040
  H                 -0.6838220    -0.7758470    -1.5576010
  H                  1.0038610    -0.2217700    -1.5616520
  H                 -0.3198320     0.9627440    -1.5709320
