 10
#Generated by chemFileConvert.py
  N                 -0.0000260     0.5742700    -0.1528520
  C                  1.2063640    -0.2258970     0.0208170
  C                 -1.2063270    -0.2258910     0.0208010
  H                  0.0000040     1.3212180     0.5394680
  H                  1.2508010    -0.7709660     0.9792680
  H                  2.0851550     0.4194100    -0.0537280
  H                  1.2603030    -0.9635770    -0.7851690
  H                 -2.0851970     0.4193400    -0.0536760
  H                 -1.2508350    -0.7710090     0.9792610
  H                 -1.2602770    -0.9635840    -0.7851690
