 14
#Generated by chemFileConvert.py
  N                 -0.0000100    -0.0000140    -0.3433270
  C                  1.1973340    -0.7860620     0.1043030
  C                 -1.2794180    -0.6438800     0.1043020
  C                  0.0820930     1.4299600     0.1043060
  H                  0.0000000     0.0000070    -1.3718780
  H                  1.2101320    -0.7924030     1.1940770
  H                  1.1141900    -1.8025260    -0.2793360
  H                  2.0966990    -0.3074600    -0.2821810
  H                 -1.2913640    -0.6516640     1.1940790
  H                 -2.1181090    -0.0636870    -0.2794440
  H                 -1.3146120    -1.6621050    -0.2820540
  H                  1.0038890     1.8661770    -0.2794750
  H                 -0.7821500     1.9695010    -0.2820410
  H                  0.0813420     1.4441500     1.1940790
