 15
#Generated by chemFileConvert.py
  C                 -2.4205560     0.0000000     0.0118300
  C                  1.9026710    -0.0000040     0.0093960
  C                  1.1996400    -1.2063010     0.0018590
  C                  1.1996470     1.2062960     0.0018580
  C                 -0.1961990    -1.2029620    -0.0082140
  C                 -0.1961940     1.2029670    -0.0082130
  C                 -0.9136400     0.0000050    -0.0165360
  H                  2.9899420    -0.0000050     0.0144970
  H                  1.7382270    -2.1512330     0.0030650
  H                  1.7382400     2.1512250     0.0030610
  H                 -0.7371330    -2.1480740    -0.0183500
  H                 -0.7371210     2.1480830    -0.0183460
  H                 -2.8237680    -0.8851500    -0.4884320
  H                 -2.8237700     0.8853450    -0.4880880
  H                 -2.7968300    -0.0002010     1.0407190
