 22
#Generated by chemFileConvert.py
  C                  0.7388710     0.0000480    -0.0000080
  C                  1.4537310     1.1178890     0.4584330
  C                  2.8487380     1.1182140     0.4560280
  C                  3.5507530    -0.0000560     0.0000230
  C                  2.8486780    -1.1182430    -0.4560900
  C                  1.4536670    -1.1178550    -0.4584080
  C                 -0.7388780     0.0000490     0.0000030
  C                 -1.4537170     1.1178980    -0.4584240
  C                 -2.8487320     1.1182120    -0.4560370
  C                 -3.5507540    -0.0000510    -0.0000170
  C                 -2.8486840    -1.1182450     0.4560800
  C                 -1.4536680    -1.1178530     0.4584180
  H                  0.9093730     1.9786470     0.8417280
  H                  3.3890440     1.9888430     0.8208950
  H                  4.6380700    -0.0000690    -0.0000140
  H                  3.3889190    -1.9889370    -0.8208920
  H                  0.9092590    -1.9785210    -0.8418380
  H                 -0.9093790     1.9786580    -0.8417390
  H                 -3.3890460     1.9888530    -0.8208630
  H                 -4.6380710    -0.0000680    -0.0000180
  H                 -3.3889330    -1.9889300     0.8208980
  H                 -0.9092640    -1.9785200     0.8418390
