 18
#Generated by chemFileConvert.py
  C                 -1.1592290    -0.8823630    -0.2326730
  C                 -1.3437640     0.5627420     0.2326680
  C                 -0.1845300     1.4451040    -0.2326700
  C                  1.1592310     0.8823580     0.2326770
  C                  1.3437590    -0.5627420    -0.2326830
  C                  0.1845330    -1.4451010     0.2326800
  H                 -1.2023750    -0.9152160    -1.3301180
  H                 -1.9819560    -1.5085900     0.1331310
  H                 -2.2974530     0.9621300    -0.1331460
  H                 -1.3937950     0.5836920     1.3301120
  H                 -0.1913930     1.4989040    -1.3301140
  H                 -0.3154970     2.4707180     0.1331400
  H                  1.9819570     1.5085850    -0.1331240
  H                  1.2023830     0.9151940     1.3301230
  H                  1.3937660    -0.5836850    -1.3301290
  H                  2.2974540    -0.9621310     0.1331110
  H                  0.3155000    -2.4707190    -0.1331130
  H                  0.1914070    -1.4988810     1.3301270
