 24
#Generated by chemFileConvert.py
  C                  1.2262440     0.7033820     0.0000500
  C                  1.2262430    -0.7033870    -0.0000540
  C                 -1.2262470     0.7033830    -0.0000590
  C                 -1.2262550    -0.7033680     0.0000410
  C                  0.0000100     1.3754660     0.0001080
  C                  0.0000040    -1.3754620    -0.0001180
  C                  2.5196450     1.4752630    -0.0001410
  C                  2.5196410    -1.4752700     0.0001490
  C                 -2.5196390     1.4752910     0.0000850
  C                 -2.5196430    -1.4752910    -0.0000760
  H                 -0.0000010     2.4660530     0.0000590
  H                 -0.0000130    -2.4660490    -0.0001000
  H                  3.1262020     1.2445330    -0.8831410
  H                  2.3275820     2.5516620     0.0033540
  H                  3.1295520     1.2393300     0.8791220
  H                  2.3275740    -2.5516680    -0.0035420
  H                  3.1260850    -1.2446800     0.8832630
  H                  3.1296610    -1.2391990    -0.8789980
  H                 -2.3275760     2.5516970    -0.0000810
  H                 -3.1280450     1.2418530    -0.8809050
  H                 -3.1277070     1.2420550     0.8813610
  H                 -3.1278280    -1.2421920     0.8811610
  H                 -2.3275730    -2.5516940    -0.0003500
  H                 -3.1279350    -1.2417420    -0.8811110
