 21
#Generated by chemFileConvert.py
  C                 -0.9943860    -0.9982410    -0.0002060
  C                  1.3631580    -0.3675430    -0.0002130
  C                 -0.3617450     1.3590140     0.0000370
  C                  0.3623760    -1.3434660    -0.0002300
  C                 -1.3391520     0.3565390    -0.0000070
  C                  0.9836680     0.9802940    -0.0000190
  C                 -2.0671650    -2.0579100     0.0001820
  C                  2.8223200    -0.7469410     0.0001890
  C                 -0.7630350     2.8124320     0.0000400
  H                  0.6442080    -2.3964160    -0.0004610
  H                 -2.3928880     0.6392480    -0.0000660
  H                  1.7549190     1.7512480    -0.0000870
  H                 -1.6292410    -3.0599420    -0.0042060
  H                 -2.7064590    -1.9740480     0.8851770
  H                 -2.7122580    -1.9687750    -0.8800540
  H                  3.3359960    -0.3463130    -0.8799400
  H                  2.9454160    -1.8335640    -0.0043120
  H                  3.3335550    -0.3539740     0.8852030
  H                 -1.3633200     3.0574150     0.8824160
  H                 -1.3625600     3.0576340    -0.8827950
  H                  0.1163870     3.4624160     0.0004950
