 15
#Generated by chemFileConvert.py
  N                 -0.2128630    -0.6626960     2.2689800
  C                  0.0252630     0.0787680    -0.2696630
  C                  0.3615540    -1.1573890    -1.1139060
  C                 -1.3040350     0.6903170    -0.7310740
  C                  1.1511020     1.1156510    -0.3758900
  C                 -0.1072590    -0.3325050     1.1388020
  H                 -0.4288280    -1.9091950    -1.0376890
  H                  0.4623230    -0.8627030    -2.1633600
  H                  1.3021950    -1.6093050    -0.7872670
  H                 -2.1172840    -0.0361220    -0.6496050
  H                 -1.5606040     1.5665100    -0.1292590
  H                 -1.2164660     0.9996530    -1.7774920
  H                  2.1025790     0.6949370    -0.0391190
  H                  0.9282380     1.9976820     0.2308040
  H                  1.2581340     1.4283610    -1.4194920
