 18
#Generated by chemFileConvert.py
  C                 -1.4190400     0.0000090     0.0189940
  C                  1.4190410     0.0000020    -0.0189960
  C                 -0.6974260     1.1997870     0.0075810
  C                  0.6974310     1.1997830    -0.0075880
  C                 -0.6974290    -1.1997760     0.0075820
  C                  0.6974240    -1.1997790    -0.0075890
  C                 -2.9256280    -0.0000070    -0.0072180
  C                  2.9256290    -0.0000080     0.0072290
  H                 -1.2338120     2.1477970     0.0146380
  H                  1.2338220     2.1477910    -0.0146480
  H                 -1.2338190    -2.1477850     0.0146420
  H                  1.2338100    -2.1477900    -0.0146500
  H                 -3.3275770    -0.8850990     0.4943090
  H                 -3.3275740     0.8856500     0.4933100
  H                 -3.3047090    -0.0005940    -1.0351450
  H                  3.3275790    -0.8852600    -0.4940130
  H                  3.3275800     0.8854900    -0.4935750
  H                  3.3046970    -0.0002660     1.0351610
