 26
#Generated by chemFileConvert.py
  C                 -0.7108770     0.0000000    -0.0001820
  C                  0.7108770     0.0000000     0.0002060
  C                 -1.4264970    -1.2366670    -0.0000190
  C                  1.4264970    -1.2366670     0.0000130
  C                 -1.4264970     1.2366660    -0.0000380
  C                  1.4264980     1.2366660    -0.0000030
  C                 -0.6835250    -2.4621930    -0.0000500
  C                  0.6835250    -2.4621940     0.0000820
  C                 -0.6835240     2.4621940    -0.0000790
  C                  0.6835250     2.4621940     0.0000430
  C                 -2.8304670    -1.2115920    -0.0001610
  C                  2.8304660    -1.2115920     0.0001960
  C                 -2.8304670     1.2115930    -0.0001770
  C                  2.8304670     1.2115930     0.0001780
  C                 -3.5209360     0.0000000    -0.0001870
  C                  3.5209370     0.0000000     0.0001780
  H                 -1.2312720    -3.4039350    -0.0000260
  H                  1.2312730    -3.4039350     0.0000700
  H                 -1.2312740     3.4039340    -0.0000720
  H                  1.2312740     3.4039350     0.0000210
  H                 -3.3785670    -2.1529460    -0.0001580
  H                  3.3785660    -2.1529460     0.0001850
  H                 -3.3785670     2.1529460    -0.0001860
  H                  3.3785680     2.1529450     0.0001490
  H                 -4.6088890     0.0000010    -0.0002640
  H                  4.6088890    -0.0000010     0.0002830
