 30
#Generated by chemFileConvert.py
  C                  0.0000040     0.7257870     0.0215410
  C                 -0.0000020    -0.7257970    -0.0215170
  C                 -2.4489340     0.7231010     0.0175660
  C                 -2.4489470    -0.7230890    -0.0175050
  C                  2.4489390     0.7230930     0.0174630
  C                  2.4489480    -0.7231100    -0.0174670
  C                  1.2316910     1.4075270    -0.0100430
  C                  1.2316880    -1.4075250     0.0100900
  C                 -1.2316800     1.4075190    -0.0100960
  C                 -1.2316950    -1.4075270     0.0100730
  C                 -3.7020060     1.4088000    -0.0077010
  C                 -3.7020150    -1.4087990     0.0076610
  C                  3.7020060     1.4088170    -0.0074090
  C                  3.7020160    -1.4088120     0.0074190
  C                 -4.8850810     0.7125380     0.0035880
  C                 -4.8850880    -0.7125340    -0.0036080
  C                  4.8850730     0.7125350     0.0035450
  C                  4.8850820    -0.7125310    -0.0035960
  H                  1.2330880     2.4984560     0.0075460
  H                  1.2330710    -2.4984600    -0.0074900
  H                 -1.2330710     2.4984490     0.0075220
  H                 -1.2330760    -2.4984560    -0.0074710
  H                 -3.7022470     2.4979940     0.0007660
  H                 -3.7022360    -2.4979910    -0.0007380
  H                  3.7022470     2.4980110     0.0009380
  H                  3.7022410    -2.4980090    -0.0009420
  H                 -5.8314380     1.2484960    -0.0083260
  H                 -5.8314550    -1.2484770     0.0082200
  H                  5.8314310     1.2485060    -0.0079480
  H                  5.8314540    -1.2484740     0.0079010
