 13
#Generated by chemFileConvert.py
  O                 -2.2334690    -1.1675340     0.0001340
  N                  0.0265130    -0.9084710    -0.0000270
  N                  2.3544690    -0.8475160    -0.0005320
  N                 -1.3973450     1.0028810     0.0002180
  C                  1.1706060    -0.1768690    -0.0001310
  C                  1.0385970     1.1986830    -0.0000890
  C                 -1.2978830    -0.3751090     0.0001540
  C                 -0.2757380     1.7018570     0.0000510
  H                  0.0506260    -1.9247470    -0.0002200
  H                  1.9024710     1.8518520    -0.0001620
  H                 -0.4079780     2.7850560     0.0002120
  H                  3.2235170    -0.3366370     0.0005700
  H                  2.4001700    -1.8548790     0.0010060
