 14
#Generated by chemFileConvert.py
  N                  2.3399850     0.0000400    -0.0882940
  C                  0.9354480     0.0000030    -0.0013470
  C                  0.2222290     1.2072330    -0.0096550
  C                 -1.1718320     1.2039030     0.0053930
  C                 -1.8790760     0.0000220     0.0076380
  C                 -1.1718640    -1.2038970     0.0054270
  C                  0.2221720    -1.2072360    -0.0096460
  H                  2.7627720     0.8296730     0.3164440
  H                  2.7627430    -0.8301660     0.3152910
  H                  0.7657540     2.1507970    -0.0162340
  H                 -1.7067870     2.1509120     0.0059600
  H                 -2.9656380    -0.0000200     0.0197930
  H                 -1.7069100    -2.1508590     0.0059040
  H                  0.7657150    -2.1507810    -0.0159610
