  5
#Generated by chemFileConvert.py
  F                  0.6167210     1.0982160    -0.1288360
  F                  0.6428170    -1.0831530    -0.1288340
  F                 -1.2595220    -0.0150660    -0.1288310
  C                 -0.0000390     0.0000040     0.3413910
  H                  0.0001000     0.0000020     1.4301680
