  5
#Generated by chemFileConvert.py
 Cl                 -1.6714420    -0.1952820    -0.0833930
 Cl                  1.0048330    -1.3498640    -0.0833960
 Cl                  0.6665980     1.5451390    -0.0834000
  C                  0.0000270     0.0000110     0.4524940
  H                  0.0000210     0.0000570     1.5382550
