 12
#Generated by chemFileConvert.py
  N                  0.1712930    -1.0406060    -0.0000250
  N                  1.5395640     0.7140220    -0.0006150
  C                 -0.6486520     0.0688480    -0.0000100
  C                 -2.1370900    -0.0166370     0.0000170
  C                  0.2282570     1.1348590     0.0002090
  C                  1.4683060    -0.6083830     0.0003860
  H                 -0.1378750    -2.0050800    -0.0000100
  H                 -2.5173940    -0.5355380     0.8864280
  H                 -2.5554930     0.9924890    -0.0004510
  H                 -2.5174040    -0.5363680    -0.8859050
  H                 -0.0216830     2.1883360     0.0002760
  H                  2.3089220    -1.2898710     0.0005270
