 18
#Generated by chemFileConvert.py
  C                 -0.4111520    -0.7126550     0.0000000
  C                 -1.9318910    -0.8068500     0.0000000
  C                 -2.4211380    -2.2516450     0.0000000
  N                  0.0000000     0.6708000     0.0000000
  C                  1.2895240     1.1529650     0.0000000
  N                  1.4680370     2.4337510     0.0000000
  N                  2.2639170     0.1721360     0.0000000
  H                 -0.0251680    -1.2402640     0.8864350
  H                 -0.0251680    -1.2402640    -0.8864350
  H                 -2.3164570    -0.2812890     0.8815700
  H                 -2.3164570    -0.2812890    -0.8815700
  H                 -3.5133300    -2.2957770     0.0000000
  H                 -2.0641790    -2.7865400    -0.8851380
  H                 -2.0641790    -2.7865400     0.8851380
  H                 -0.7011600     1.3990150     0.0000000
  H                  2.4653750     2.6550960     0.0000000
  H                  2.0510630    -0.8112120     0.0000000
  H                  3.2339250     0.4413680     0.0000000
