 12
#Generated by chemFileConvert.py
  O                 -0.4923450     1.3632740     0.0047680
  N                 -1.7507560    -0.5313030    -0.0074470
  C                  0.6724550    -0.7636660     0.0116250
  C                  1.9661690     0.0374190    -0.0092300
  C                 -0.5559540     0.1347490     0.0021540
  H                  0.6261720    -1.4037350     0.9017330
  H                  0.6181110    -1.4376660    -0.8525020
  H                  2.8306620    -0.6317880     0.0008820
  H                  2.0167960     0.6624200    -0.9023730
  H                  2.0226490     0.6976010     0.8577070
  H                 -1.8142910    -1.5376440    -0.0092160
  H                 -2.6020670     0.0127290    -0.0095420
