 11
#Generated by chemFileConvert.py
  C                  0.0000010     0.5882480    -0.0000070
  C                  1.2686090    -0.2604710    -0.0000080
  C                 -1.2686110    -0.2604730     0.0000140
  H                  0.0000040     1.2451810     0.8772640
  H                 -0.0000080     1.2451610    -0.8772930
  H                  1.3058050    -0.9047420     0.8839990
  H                  1.3057540    -0.9048120    -0.8839650
  H                  2.1678120     0.3624640    -0.0000560
  H                 -2.1678060     0.3624710     0.0000180
  H                 -1.3057710    -0.9047670     0.8840050
  H                 -1.3057890    -0.9047820    -0.8839660
