 14
#Generated by chemFileConvert.py
  C                  0.5628270     0.5156470    -0.0004520
  C                 -0.5628270    -0.5156460    -0.0004270
  C                  1.9502140    -0.1205320     0.0003940
  C                 -1.9502150     0.1205310     0.0004090
  H                  0.4544280     1.1654020     0.8771530
  H                  0.4550820     1.1645030    -0.8788030
  H                 -0.4550900    -1.1645360    -0.8787530
  H                 -0.4544190    -1.1653660     0.8772030
  H                  2.0896700    -0.7493170     0.8852790
  H                  2.0896320    -0.7517090    -0.8828000
  H                  2.7388910     0.6375320    -0.0006690
  H                 -2.0896600     0.7493560     0.8852670
  H                 -2.7388890    -0.6375360    -0.0006100
  H                 -2.0896450     0.7516680    -0.8828120
