 17
#Generated by chemFileConvert.py
  S                  0.0000110     0.1881670    -0.0000010
  O                 -0.0000360     0.9194870     1.2797200
  O                 -0.0000020     0.9195190    -1.2797030
  C                 -1.4151770    -0.9160910    -0.0000330
  C                  1.4152210    -0.9161260     0.0000050
  C                 -2.7012720    -0.0971660    -0.0000200
  C                  2.7012500    -0.0971450     0.0000350
  H                 -1.3330610    -1.5433750    -0.8926060
  H                 -1.3330690    -1.5434170     0.8925110
  H                  1.3330570    -1.5434210     0.8925650
  H                  1.3330850    -1.5433980    -0.8925740
  H                 -3.5631930    -0.7681330    -0.0000520
  H                 -2.7480190     0.5365090     0.8875020
  H                 -2.7480000     0.5365670    -0.8875020
  H                  3.5632380    -0.7680250     0.0000210
  H                  2.7479810     0.5365920    -0.8874510
  H                  2.7479710     0.5365460     0.8875530
