 16
#Generated by chemFileConvert.py
  S                 -0.6655100    -0.1222880    -0.7786460
  S                  0.9490790    -1.0924950     0.0459080
  C                 -1.8138760    -0.0304820     0.6345850
  C                  1.9109420     0.2797190     0.7637780
  C                 -3.1055240     0.6383450     0.1798380
  C                  2.5270550     1.2077640    -0.2710270
  H                 -2.0036980    -1.0433510     0.9976740
  H                 -1.3479990     0.5419670     1.4415090
  H                  1.2751640     0.8312490     1.4628040
  H                  2.6882710    -0.2183730     1.3542260
  H                 -2.9201200     1.6535150    -0.1804290
  H                 -3.5810360     0.0698190    -0.6233660
  H                 -3.8066230     0.6970240     1.0170440
  H                  3.1944500     0.6554300    -0.9366350
  H                  1.7503090     1.6808700    -0.8763170
  H                  3.1026000     1.9962990     0.2242510
