 10
#Generated by chemFileConvert.py
 Cl                 -1.7654740    -0.3100940    -0.0000140
  O                  0.1191480     1.5182110     0.0000140
  C                  0.9469290    -0.7644920     0.0000410
  C                  2.3654940    -0.2123180    -0.0000340
  C                 -0.0820610     0.3337550     0.0000080
  H                  0.7528550    -1.3956680     0.8744030
  H                  0.7528050    -1.3957990    -0.8742120
  H                  2.5431970     0.4048060    -0.8827890
  H                  2.5432490     0.4048980     0.8826450
  H                  3.0855950    -1.0339960    -0.0000140
