 10
#Generated by chemFileConvert.py
  F                  0.7457720     1.2439030     0.0993580
  O                  1.5750600    -0.7893450    -0.3055120
  C                 -0.7198440    -0.5585240     0.4986260
  C                 -1.8269480     0.0738180    -0.3493740
  C                  0.6450590    -0.1245570     0.0566130
  H                 -0.8366380    -0.2608540     1.5463680
  H                 -0.7457930    -1.6486690     0.4487620
  H                 -1.7160630    -0.2005380    -1.4014460
  H                 -2.8039020    -0.2761050    -0.0088100
  H                 -1.7996360     1.1613730    -0.2701860
