 12
#Generated by chemFileConvert.py
  O                  0.1794810    -0.4898030     0.0000350
  O                 -1.9464530    -0.9505490     0.0000960
  O                 -1.3135820     1.2425430    -0.0001270
  C                  1.2564470     0.4820050    -0.0000540
  C                  2.5435920    -0.3088610     0.0000600
  C                 -1.0431930     0.0552410    -0.0000240
  H                  1.1578850     1.1159710    -0.8848970
  H                  1.1578520     1.1161750     0.8846380
  H                  3.3970200     0.3747910    -0.0000030
  H                  2.6040770    -0.9424360     0.8871280
  H                  2.6041090    -0.9426420    -0.8868570
  H                 -2.8175920    -0.5097070     0.0000630
