 13
#Generated by chemFileConvert.py
  N                 -3.2235750     0.0000070     0.0001520
  C                 -0.6037160    -0.0000080    -0.0000850
  C                  0.0916120    -1.2188480    -0.0000380
  C                  0.0915980     1.2188410    -0.0000380
  C                  1.4853760    -1.2105100     0.0000370
  C                  1.4853620     1.2105190     0.0000370
  C                  2.1831530     0.0000080     0.0000710
  C                 -2.0399480    -0.0000140    -0.0001810
  H                 -0.4610000    -2.1546890    -0.0000690
  H                 -0.4610240     2.1546760    -0.0000680
  H                  2.0281230    -2.1522080     0.0000640
  H                  2.0281000     2.1522220     0.0000650
  H                  3.2702100     0.0000140     0.0001300
