 12
#Generated by chemFileConvert.py
  O                 -1.4055500    -1.0035560    -0.0001340
  N                 -0.2319130     1.0048570     0.0000670
  C                  1.1804460     0.6184860    -0.0000090
  C                  1.4443320    -0.8809630     0.0000140
  C                 -1.3478080     0.2225470     0.0001080
  H                  1.6527880     1.0692100    -0.8813440
  H                  1.6528850     1.0692530     0.8812520
  H                  1.0221490    -1.3629470     0.8804920
  H                  1.0220490    -1.3629920    -0.8803930
  H                  2.5284630    -1.0297260    -0.0000450
  H                 -0.4113470     2.0016670     0.0000610
  H                 -2.2610150     0.8495590    -0.0000980
