 11
#Generated by chemFileConvert.py
  O                 -0.3708850     1.1374830    -0.1792890
  O                 -0.3703240    -1.1378310     0.1786440
  C                  0.9437350     0.7292120     0.2081230
  C                  0.9442940    -0.7286720    -0.2079020
  C                 -1.2056960    -0.0002420     0.0002480
  H                  1.0881780     0.8312400     1.2920210
  H                  1.6593840     1.3596400    -0.3231520
  H                  1.0894950    -0.8305950    -1.2917000
  H                  1.6600270    -1.3586360     0.3238180
  H                 -1.8301230     0.0948300     0.8968380
  H                 -1.8312890    -0.0954850    -0.8954820
