 11
#Generated by chemFileConvert.py
  N                  0.0402460     1.4416600     0.0000620
  C                  0.0039250     0.1554150    -0.0002990
  C                 -1.3400130    -0.5204670     0.0000250
  C                  1.2044310    -0.7598510     0.0000030
  H                 -2.1277100     0.2335740    -0.0000130
  H                 -1.4495710    -1.1615970    -0.8813460
  H                 -1.4493400    -1.1611390     0.8817800
  H                  2.1385520    -0.1918070    -0.0030740
  H                  1.1876380    -1.4127410    -0.8791240
  H                  1.1905740    -1.4078120     0.8828600
  H                  1.0180780     1.7593200     0.0001080
