  8
#Generated by chemFileConvert.py
  O                  1.4608160    -0.9817270     0.0002400
  O                 -1.4608130     0.9817270     0.0002230
  O                  1.2132250     1.2829860    -0.0000330
  O                 -1.2132270    -1.2829860    -0.0001300
  C                  0.7476930     0.1601270    -0.0003220
  C                 -0.7476940    -0.1601270    -0.0002390
  H                  2.4016800    -0.7069230     0.0005270
  H                 -2.4016780     0.7069260     0.0004400
