  7
#Generated by chemFileConvert.py
  O                  1.3719500     1.0365520     0.0001530
  O                  1.2974920    -1.2070900     0.0002320
  O                 -1.5132940    -1.0592330    -0.0003040
  O                 -1.2763200     1.2290260    -0.0002110
  C                  0.6716220    -0.1528200    -0.0001790
  C                 -0.8948800     0.0328190     0.0003190
  H                  2.3009280     0.7259580     0.0001900
