 10
#Generated by chemFileConvert.py
  O                  1.6853730    -0.6083350    -0.1243790
  O                  0.5719120     1.2863760     0.0695120
  N                  0.6408460     0.0479760     0.0122270
  C                 -0.6264930    -0.7411460     0.1639780
  C                 -1.8590060     0.0884880    -0.1216840
  H                 -0.5100060    -1.5905650    -0.5103580
  H                 -0.6039710    -1.1163170     1.1909310
  H                 -1.9382960     0.9237250     0.5735710
  H                 -1.8356290     0.4847820    -1.1384320
  H                 -2.7433030    -0.5458310    -0.0161270
