 10
#Generated by chemFileConvert.py
  O                  1.6031800    -0.7324980    -0.0000110
  O                  0.6173340     1.3294240    -0.0000320
  N                 -0.6250510    -0.6151900    -0.0000260
  C                 -1.9301110     0.0126390     0.0000390
  C                  0.5210560     0.1088720     0.0000320
  H                 -0.5391190    -1.6216620     0.0000690
  H                 -2.5003300    -0.2657770    -0.8906260
  H                 -1.7714790     1.0904060    -0.0008230
  H                 -2.4997010    -0.2644210     0.8915380
  H                  2.3761990    -0.1366920    -0.0000490
