  6
#Generated by chemFileConvert.py
  O                  0.7018950    -1.1499360     0.0000130
  O                  0.7018860     1.1499410     0.0000130
  N                 -1.2570750    -0.0000040    -0.0001850
  C                  0.1802210     0.0000000     0.0000470
  H                 -1.7560250     0.8738390     0.0004010
  H                 -1.7560220    -0.8738500     0.0004010
