 13
#Generated by chemFileConvert.py
  N                  1.9381540    -0.0000390     0.0000190
  N                  3.0749700     0.0000220    -0.0000560
  C                  0.5473360    -0.0000170     0.0000140
  C                 -0.0940020    -1.2473330     0.0000080
  C                 -0.0939660     1.2473160     0.0000070
  C                 -1.4853590    -1.2209880     0.0000050
  C                 -1.4853240     1.2210110     0.0000030
  C                 -2.1726170     0.0000220     0.0000020
  H                  0.4692830    -2.1765740     0.0000100
  H                  0.4693460     2.1765410     0.0000080
  H                 -2.0338500    -2.1581340     0.0000040
  H                 -2.0337860     2.1581750     0.0000020
  H                 -3.2592660     0.0000380    -0.0000010
