 11
#Generated by chemFileConvert.py
  S                  0.5401240    -0.0567320     0.0000000
  O                  0.4874240    -0.8647860    -1.2512880
  O                  1.5758940     1.0121500    -0.0000060
  O                  0.4874170    -0.8647610     1.2513040
  C                 -1.0236020     0.8530730    -0.0000110
  C                 -2.2227860    -0.0817370     0.0000010
  H                 -1.0143060     1.4942760     0.8867830
  H                 -1.0143040     1.4942500    -0.8868250
  H                 -3.1679310     0.4744510    -0.0000100
  H                 -2.1864950    -0.7220660    -0.8842360
  H                 -2.1864990    -0.7220390     0.8842580
