 16
#Generated by chemFileConvert.py
  S                 -1.4659670    -0.0143510    -0.1375590
  O                 -1.8394920    -0.1365420     1.4591290
  O                 -1.9435910     1.2980210    -0.5718830
  O                 -1.8964450    -1.2505210    -0.7700040
  C                  0.3016450    -0.0021640    -0.0777860
  C                  0.9828110    -1.2195380    -0.0166250
  C                  0.9713990     1.2224970    -0.0766470
  C                  2.3756580    -1.2011840     0.0524460
  C                  2.3651700     1.2207630    -0.0118790
  C                  3.0655170     0.0141320     0.0587200
  H                  0.4311260    -2.1548100    -0.0413950
  H                  0.4102460     2.1495350    -0.1499850
  H                  2.9234210    -2.1387710     0.0978390
  H                  2.9045270     2.1643280    -0.0189110
  H                  4.1513520     0.0202670     0.1091490
  H                 -2.3021640     0.6943620     1.6969290
