 15
#Generated by chemFileConvert.py
  S                 -1.5500650    -0.0000770     0.0055040
  O                 -1.8677260    -0.0040310     1.4568130
  O                 -1.9173420     1.2548610    -0.7013450
  O                 -1.9179590    -1.2504550    -0.7090990
  C                  0.2577020     0.0000600    -0.0380210
  C                  0.9598570    -1.2082450    -0.0264560
  C                  0.9600990     1.2082480    -0.0266860
  C                  2.3556760    -1.2079150     0.0024970
  C                  2.3559460     1.2077510     0.0021770
  C                  3.0593930    -0.0001220     0.0217850
  H                  0.3939800    -2.1354100    -0.0629560
  H                  0.3942590     2.1354370    -0.0632640
  H                  2.8982100    -2.1524450     0.0063830
  H                  2.8986710     2.1521870     0.0058350
  H                  4.1480910    -0.0001990     0.0432140
