 14
#Generated by chemFileConvert.py
  O                 -0.1816340    -0.4581900    -0.0001520
  O                  1.1902440     1.3536890     0.0000850
  C                 -1.3062030     0.4550440     0.0000220
  C                 -2.5549260    -0.3966560     0.0000690
  C                  1.0354490     0.1438350    -0.0001700
  C                  2.1329550    -0.8859990     0.0000420
  H                 -1.2412540     1.0963570     0.8832990
  H                 -1.2414110     1.0964890    -0.8831720
  H                 -3.4424010     0.2425350     0.0001940
  H                 -2.5849670    -1.0330240    -0.8868250
  H                 -2.5848130    -1.0331530     0.8868760
  H                  2.0416630    -1.5248420    -0.8815190
  H                  2.0422710    -1.5237540     0.8824640
  H                  3.0983910    -0.3819430    -0.0005520
