 15
#Generated by chemFileConvert.py
  S                 -0.8476060    -0.1637020     0.0000030
  O                  0.6356330     0.5297810    -0.0000160
  O                 -1.0489850    -0.8657660     1.2662050
  O                 -1.0490000    -0.8658060    -1.2661730
  C                  1.7325050    -0.4363530    -0.0000120
  C                 -1.7653290     1.3514860    -0.0000140
  C                  3.0067930     0.3740820     0.0000060
  H                  1.6431710    -1.0620260     0.8923500
  H                  1.6431890    -1.0620130    -0.8923850
  H                 -2.8222650     1.0809220     0.0000090
  H                 -1.5154150     1.9136800     0.8990170
  H                 -1.5154440     1.9136410    -0.8990780
  H                  3.8691330    -0.2986670     0.0000080
  H                  3.0571710     1.0063710    -0.8885170
  H                  3.0571560     1.0063550     0.8885430
