 10
#Generated by chemFileConvert.py
  S                  0.1264700    -0.7742460     0.0000110
  N                  2.6648510     0.5909190    -0.0000260
  C                 -0.9835220     0.6827390     0.0000510
  C                 -2.4242840     0.1891640    -0.0000380
  C                  1.6149060     0.0390340    -0.0000080
  H                 -0.7718060     1.2803900     0.8886850
  H                 -0.7716890     1.2805110    -0.8884740
  H                 -2.6381270    -0.4115180    -0.8874520
  H                 -2.6382870    -0.4114970     0.8873540
  H                 -3.1001780     1.0479890    -0.0001390
