  8
#Generated by chemFileConvert.py
  O                  1.8013450    -0.1222670    -0.0001450
  C                 -0.5611510    -0.4520200    -0.0000120
  C                  0.6707050     0.3546130    -0.0000040
  C                 -1.7652780     0.1406350     0.0001500
  H                 -0.4438600    -1.5324100    -0.0001440
  H                  0.5134400     1.4540710     0.0000460
  H                 -2.6894370    -0.4270490     0.0001690
  H                 -1.8565530     1.2241520     0.0002830
