 12
#Generated by chemFileConvert.py
  O                  2.3113770    -0.3374580     0.0558470
  N                  1.1360090     0.3343940    -0.3643560
  C                 -1.1987920     0.6023930     0.1340090
  C                 -2.2229840    -0.4847570    -0.2038870
  C                  0.1526050     0.0245260     0.4043250
  H                 -1.5334920     1.1612300     1.0167400
  H                 -1.1079080     1.3161780    -0.6902320
  H                 -1.9266320    -1.0220700    -1.1084710
  H                 -2.3096210    -1.2114710     0.6092880
  H                 -3.2110640    -0.0477540    -0.3721170
  H                  0.2980470    -0.6712980     1.2352290
  H                  2.9626180    -0.0188780    -0.5933990
