 15
#Generated by chemFileConvert.py
  O                 -2.3042200    -1.0991630    -0.0003290
  O                 -2.3377670     1.1635920     0.0000360
  C                 -0.2184710     0.0274960    -0.0000150
  C                  0.5080430     1.2243810    -0.0001580
  C                  0.4461120    -1.2054740     0.0002260
  C                  1.9006900     1.1869520    -0.0000810
  C                  1.8404380    -1.2322990     0.0003120
  C                  2.5692530    -0.0403490     0.0001580
  C                 -1.7002410     0.1214410    -0.0000850
  H                 -0.0326500     2.1666470    -0.0003250
  H                 -0.1251480    -2.1283920     0.0003360
  H                  2.4665660     2.1152060    -0.0002030
  H                  2.3606420    -2.1869500     0.0005070
  H                  3.6563130    -0.0679050     0.0002230
  H                 -3.2647750    -0.9069250    -0.0003290
