 13
#Generated by chemFileConvert.py
  O                  1.6642950     0.7201020    -0.5160700
  O                  1.0775810    -1.0797050     0.7319740
  N                 -1.3988490    -1.0732660    -0.4837110
  C                 -0.6495640     0.1769900    -0.4154850
  C                 -1.1893050     1.2162270     0.5788640
  C                  0.7664460    -0.1647250    -0.0115660
  H                 -0.6171290     0.6221710    -1.4152790
  H                 -0.5840790     2.1275670     0.5721320
  H                 -2.2164450     1.4834670     0.3126690
  H                 -1.1896280     0.7983240     1.5903720
  H                 -2.3959300    -0.8708340    -0.5385770
  H                 -1.2389410    -1.5925540     0.3789210
  H                  2.5336290     0.4505910    -0.1523780
