  6
 #Generated by chemFileConvert.py
  O           -0.7021960    -0.0560600     0.0099420
  H           -1.0221930     0.8467760    -0.0114890
  H            0.2575210     0.0421210     0.0052190
  O            1.8666090     0.0294960     0.0014500
  H            2.2432300    -0.4088840     0.7675750
  H            2.2388730    -0.4467170    -0.7439520
