  6
 #Generated by chemFileConvert.py
  O           -0.7021960    -0.0560600     0.0099420
  H           -1.0221930     0.8467760    -0.0114890
  H            0.2575210     0.0421210     0.0052190
  O            1.6654730     0.0310750     0.0019210
  H            2.0420940    -0.4073060     0.7680460
  H            2.0377370    -0.4451380    -0.7434810
