  6
 #Generated by chemFileConvert.py
  O           -0.7021960    -0.0560600     0.0099420
  H           -1.0221930     0.8467760    -0.0114890
  H            0.2575210     0.0421210     0.0052190
  O            2.2688810     0.0263400     0.0005080
  H            2.6455020    -0.4120400     0.7666320
  H            2.6411450    -0.4498730    -0.7448940
