  6
 #Generated by chemFileConvert.py
  O           -0.7021960    -0.0560600     0.0099420
  H           -1.0221930     0.8467760    -0.0114890
  H            0.2575210     0.0421210     0.0052190
  O            2.3695490     0.0255500     0.0002720
  H            2.7461700    -0.4128300     0.7663970
  H            2.7418130    -0.4506630    -0.7451300
