9
002_Water-MeOH_1.60.txyz
O         -0.52533       -0.05097       -0.31452
H         -0.94201        0.74790        0.01125
H          0.40370        0.05979       -0.07357
O          3.53443        0.03641        0.16444
H          3.90241       -0.53567        0.84197
C          3.99944       -0.43522       -1.09772
H          3.56862        0.21587       -1.85083
H          5.08540       -0.38443       -1.17203
H          3.67110       -1.45509       -1.29680
