  9
 #Generated by chemFileConvert.py
  O           -0.5253300    -0.0509710    -0.3145170
  H           -0.9420070     0.7479020     0.0112530
  H            0.4036970     0.0597860    -0.0735680
  O            2.2626100     0.0459040     0.0677510
  H            2.6305930    -0.5261730     0.7452800
  C            2.7276150    -0.4257260    -1.1944080
  H            2.2967980     0.2253680    -1.9475220
  H            3.8135790    -0.3749330    -1.2687200
  H            2.3992730    -1.4455950    -1.3934880
