  9
 #Generated by chemFileConvert.py
  O           -0.5253300    -0.0509710    -0.3145170
  H           -0.9420070     0.7479020     0.0112530
  H            0.4036970     0.0597860    -0.0735680
  O            2.4582750     0.0444430     0.0826260
  H            2.8262580    -0.5276340     0.7601550
  C            2.9232800    -0.4271870    -1.1795330
  H            2.4924630     0.2239070    -1.9326470
  H            4.0092440    -0.3763940    -1.2538450
  H            2.5949370    -1.4470560    -1.3786130
