 10
 #Generated by chemFileConvert.py
  O           -0.6874650    -0.1117440    -0.0196250
  H           -1.0461220     0.7759380     0.0127070
  H            0.2740430     0.0258510    -0.0034970
  N            1.6813060     0.0813760     0.0032170
  H            1.9766710    -0.4712620    -0.7915740
  H            1.9913870    -0.4293450     0.8200760
  C            2.3406410     1.3897400    -0.0370250
  H            2.0300990     1.9714650     0.8274910
  H            3.4319510     1.3504450    -0.0459800
  H            2.0139290     1.9256580    -0.9248490
