 10
 #Generated by chemFileConvert.py
  O           -0.6874650    -0.1117440    -0.0196250
  H           -1.0461220     0.7759380     0.0127070
  H            0.2740430     0.0258510    -0.0034970
  N            2.1840000     0.1012110     0.0056150
  H            2.4793650    -0.4514270    -0.7891760
  H            2.4940810    -0.4095100     0.8224750
  C            2.8433350     1.4095750    -0.0346260
  H            2.5327930     1.9913000     0.8298890
  H            3.9346450     1.3702800    -0.0435820
  H            2.5166230     1.9454920    -0.9224500
