 10
 #Generated by chemFileConvert.py
  O           -0.6874650    -0.1117440    -0.0196250
  H           -1.0461220     0.7759380     0.0127070
  H            0.2740430     0.0258510    -0.0034970
  N            2.3850380     0.1091430     0.0065740
  H            2.6804020    -0.4434950    -0.7882160
  H            2.6951180    -0.4015780     0.8234340
  C            3.0443730     1.4175070    -0.0336670
  H            2.7338310     1.9992320     0.8308480
  H            4.1356820     1.3782120    -0.0426230
  H            2.7176610     1.9534240    -0.9214910
