10
003_Water-MeNH2_1.30.txyz
O         -0.68746       -0.11174       -0.01963
H         -1.04612        0.77594        0.01271
H          0.27404        0.02585       -0.00350
N          2.88763        0.12897        0.00897
H          3.18300       -0.42367       -0.78582
H          3.19771       -0.38175        0.82583
C          3.54697        1.43734       -0.03127
H          3.23643        2.01906        0.83325
H          4.63828        1.39804       -0.04022
H          3.22026        1.97325       -0.91909
