 15
 #Generated by chemFileConvert.py
  O           -0.3920180    -0.3847190     0.0760710
  H           -0.9114610     0.4138120     0.1776490
  H            0.5249040    -0.0684850     0.0905110
  C            2.0514960    -2.2609180    -0.2278140
  H            2.7014590    -3.1220300    -0.3607290
  H            1.3705200    -2.1834460    -1.0716790
  H            1.4384790    -2.3997140     0.6591950
  C            2.8062280    -0.9629050    -0.0952200
  O            2.2295130     0.1123900     0.0613690
  N            4.1568610    -1.0604070    -0.1598380
  H            4.5578130    -1.9709410    -0.2893530
  C            5.0251030     0.0915630    -0.0503950
  H            4.3886090     0.9598630     0.0843900
  H            5.6906930     0.0001080     0.8056980
  H            5.6195690     0.2209840    -0.9526540
