 15
 #Generated by chemFileConvert.py
  O           -0.3920180    -0.3847190     0.0760710
  H           -0.9114610     0.4138120     0.1776490
  H            0.5249040    -0.0684850     0.0905110
  C            2.1461910    -2.2508700    -0.2294330
  H            2.7961540    -3.1119810    -0.3623480
  H            1.4652150    -2.1733980    -1.0732980
  H            1.5331740    -2.3896660     0.6575760
  C            2.9009230    -0.9528570    -0.0968390
  O            2.3242080     0.1224380     0.0597500
  N            4.2515560    -1.0503590    -0.1614570
  H            4.6525080    -1.9608930    -0.2909720
  C            5.1197980     0.1016110    -0.0520140
  H            4.4833040     0.9699110     0.0827710
  H            5.7853880     0.0101560     0.8040790
  H            5.7142640     0.2310320    -0.9542730
