 15
 #Generated by chemFileConvert.py
  O           -0.3920180    -0.3847190     0.0760710
  H           -0.9114610     0.4138120     0.1776490
  H            0.5249040    -0.0684850     0.0905110
  C            2.2407870    -2.2408320    -0.2310500
  H            2.8907500    -3.1019440    -0.3639650
  H            1.5598110    -2.1633600    -1.0749150
  H            1.6277700    -2.3796280     0.6559590
  C            2.9955190    -0.9428190    -0.0984560
  O            2.4188030     0.1324760     0.0581320
  N            4.3461520    -1.0403220    -0.1630740
  H            4.7471040    -1.9508560    -0.2925890
  C            5.2143940     0.1116490    -0.0536310
  H            4.5779000     0.9799490     0.0811530
  H            5.8799840     0.0201930     0.8024620
  H            5.8088600     0.2410690    -0.9558900
