15
004_Water-Peptide_1.90.txyz
O         -0.39202       -0.38472        0.07607
H         -0.91146        0.41381        0.17765
H          0.52490       -0.06849        0.09051
C          3.94535       -2.05996       -0.26019
H          4.59531       -2.92107       -0.39311
H          3.26437       -1.98249       -1.10406
H          3.33233       -2.19876        0.62682
C          4.70008       -0.76195       -0.12760
O          4.12337        0.31334        0.02899
N          6.05072       -0.85945       -0.19222
H          6.45167       -1.76999       -0.32173
C          6.91896        0.29252       -0.08277
H          6.28246        1.16082        0.05201
H          7.58455        0.20106        0.77332
H          7.51342        0.42194       -0.98503
