15
004_Water-Peptide_1.30.txyz
O         -0.39202       -0.38472        0.07607
H         -0.91146        0.41381        0.17765
H          0.52490       -0.06849        0.09051
C          2.80901       -2.18054       -0.24077
H          3.45897       -3.04165       -0.37368
H          2.12803       -2.10307       -1.08463
H          2.19599       -2.31933        0.64624
C          3.56374       -0.88253       -0.10817
O          2.98703        0.19277        0.04842
N          4.91437       -0.98003       -0.17279
H          5.31533       -1.89056       -0.30230
C          5.78262        0.17194       -0.06335
H          5.14612        1.04024        0.07144
H          6.44821        0.08049        0.79275
H          6.37708        0.30136       -0.96561
