 12
 #Generated by chemFileConvert.py
  O           -0.6361350    -0.0232820     0.2805990
  H            0.3080970    -0.0470790     0.0764640
  C           -1.1520650    -1.3112880     0.0152600
  H           -2.2099450    -1.2962650     0.2639560
  H           -1.0566100    -1.5926710    -1.0361910
  H           -0.6748360    -2.0862730     0.6205110
  O            1.6613000    -0.1004600     0.0134630
  H            2.1300890     0.5139240    -0.5562030
  C            2.1701340     0.0565590     1.3351800
  H            1.6165650    -0.6316380     1.9653110
  H            3.2291300    -0.1938800     1.3919030
  H            2.0176940     1.0672530     1.7130730
