 12
 #Generated by chemFileConvert.py
  O           -0.6361350    -0.0232820     0.2805990
  H            0.3080970    -0.0470790     0.0764640
  C           -1.1520650    -1.3112880     0.0152600
  H           -2.2099450    -1.2962650     0.2639560
  H           -1.0566100    -1.5926710    -1.0361910
  H           -0.6748360    -2.0862730     0.6205110
  O            2.0480290    -0.1157160    -0.0045420
  H            2.5168180     0.4986690    -0.5742080
  C            2.5568630     0.0413030     1.3171750
  H            2.0032940    -0.6468930     1.9473060
  H            3.6158590    -0.2091360     1.3738980
  H            2.4044230     1.0519970     1.6950680
