12
005_MeOH-MeOH_1.30.txyz
O         -0.63614       -0.02328        0.28060
H          0.30810       -0.04708        0.07646
C         -1.15206       -1.31129        0.01526
H         -2.20994       -1.29627        0.26396
H         -1.05661       -1.59267       -1.03619
H         -0.67484       -2.08627        0.62051
O          2.82129       -0.14622       -0.04054
H          3.29008        0.46816       -0.61021
C          3.33012        0.01080        1.28117
H          2.77655       -0.67740        1.91130
H          4.38912       -0.23964        1.33790
H          3.17768        1.02149        1.65907
