12
005_MeOH-MeOH_1.60.txyz
O         -0.63614       -0.02328        0.28060
H          0.30810       -0.04708        0.07646
C         -1.15206       -1.31129        0.01526
H         -2.20994       -1.29627        0.26396
H         -1.05661       -1.59267       -1.03619
H         -0.67484       -2.08627        0.62051
O          3.40123       -0.16910       -0.06755
H          3.87002        0.44529       -0.63721
C          3.91007       -0.01208        1.25417
H          3.35650       -0.70027        1.88430
H          4.96906       -0.26252        1.31089
H          3.75763        0.99862        1.63206
