 12
 #Generated by chemFileConvert.py
  O           -0.6361350    -0.0232820     0.2805990
  H            0.3080970    -0.0470790     0.0764640
  C           -1.1520650    -1.3112880     0.0152600
  H           -2.2099450    -1.2962650     0.2639560
  H           -1.0566100    -1.5926710    -1.0361910
  H           -0.6748360    -2.0862730     0.6205110
  O            2.4346580    -0.1309680    -0.0225430
  H            2.9034480     0.4834170    -0.5922090
  C            2.9434920     0.0260510     1.2991750
  H            2.3899230    -0.6621450     1.9293060
  H            4.0024890    -0.2243880     1.3558980
  H            2.7910530     1.0367450     1.6770670
