 12
 #Generated by chemFileConvert.py
  O           -0.6361350    -0.0232820     0.2805990
  H            0.3080970    -0.0470790     0.0764640
  C           -1.1520650    -1.3112880     0.0152600
  H           -2.2099450    -1.2962650     0.2639560
  H           -1.0566100    -1.5926710    -1.0361910
  H           -0.6748360    -2.0862730     0.6205110
  O            2.2412440    -0.1233380    -0.0135380
  H            2.7100330     0.4910470    -0.5832040
  C            2.7500780     0.0336810     1.3081800
  H            2.1965090    -0.6545150     1.9383100
  H            3.8090740    -0.2167580     1.3649030
  H            2.5976380     1.0443750     1.6860720
