 13
 #Generated by chemFileConvert.py
  O           -0.7069200     0.0458300     0.0063860
  H            0.2656240     0.0717100     0.0013390
  C           -1.0766710    -1.3139160     0.0016140
  H           -2.1629240    -1.3631960     0.0058650
  H           -0.7234060    -1.8446520    -0.8877430
  H           -0.7160800    -1.8528210     0.8830800
  N            2.2319140    -0.0381330    -0.0034120
  H            2.6025330     0.4696440     0.7897200
  H            2.6026560     0.4262060    -0.8226710
  C            2.7096660    -1.4241660     0.0340490
  H            2.3177810    -1.9581910    -0.8281430
  H            3.7963770    -1.5309010     0.0370830
  H            2.3175390    -1.9108960     0.9236810
