 13
 #Generated by chemFileConvert.py
  O           -0.7069200     0.0458300     0.0063860
  H            0.2656240     0.0717100     0.0013390
  C           -1.0766710    -1.3139160     0.0016140
  H           -2.1629240    -1.3631960     0.0058650
  H           -0.7234060    -1.8446520    -0.8877430
  H           -0.7160800    -1.8528210     0.8830800
  N            2.0353840    -0.0271540    -0.0029380
  H            2.4060040     0.4806230     0.7901950
  H            2.4061270     0.4371850    -0.8221960
  C            2.5131360    -1.4131870     0.0345240
  H            2.1212520    -1.9472130    -0.8276680
  H            3.5998480    -1.5199220     0.0375580
  H            2.1210100    -1.8999170     0.9241560
