 13
 #Generated by chemFileConvert.py
  O           -0.7069200     0.0458300     0.0063860
  H            0.2656240     0.0717100     0.0013390
  C           -1.0766710    -1.3139160     0.0016140
  H           -2.1629240    -1.3631960     0.0058650
  H           -0.7234060    -1.8446520    -0.8877430
  H           -0.7160800    -1.8528210     0.8830800
  N            1.6420270    -0.0051800    -0.0019870
  H            2.0126460     0.5025970     0.7911450
  H            2.0127690     0.4591590    -0.8212460
  C            2.1197790    -1.3912130     0.0354740
  H            1.7278940    -1.9252380    -0.8267170
  H            3.2064900    -1.4979480     0.0385090
  H            1.7276520    -1.8779430     0.9251060
