 18
 #Generated by chemFileConvert.py
  O           -0.2087770    -0.2168710    -1.0324060
  H            0.7111260    -0.3868920    -0.7739620
  C           -1.0221730    -0.7411710    -0.0054540
  H           -2.0574910    -0.5387070    -0.2685970
  H           -0.9077430    -1.8218260     0.1085370
  H           -0.8246310    -0.2754950     0.9646450
  C            1.4643890     1.8987920     0.2566020
  H            1.9707830     2.8602420     0.2217310
  H            1.0538450     1.7526570     1.2544780
  H            0.6347410     1.8892790    -0.4449040
  C            2.3800190     0.7438540    -0.0593150
  O            1.9558250    -0.3760570    -0.3443960
  N            3.7061560     1.0055780    -0.0001150
  H            4.0041690     1.9160060     0.2975720
  C            4.6885620    -0.0345330    -0.2228590
  H            4.3320050    -0.6854710    -1.0150360
  H            5.6289310     0.4189900    -0.5213730
  H            4.8480720    -0.6390600     0.6692170
