18
007_MeOH-Peptide_1.60.txyz
O         -0.20878       -0.21687       -1.03241
H          0.71113       -0.38689       -0.77396
C         -1.02217       -0.74117       -0.00545
H         -2.05749       -0.53871       -0.26860
H         -0.90774       -1.82183        0.10854
H         -0.82463       -0.27549        0.96464
C          3.06481        1.91273        0.80893
H          3.57120        2.87417        0.77406
H          2.65427        1.76659        1.80681
H          2.23516        1.90321        0.10743
C          3.98044        0.75779        0.49301
O          3.55625       -0.36212        0.20793
N          5.30658        1.01951        0.55221
H          5.60459        1.92994        0.84990
C          6.28898       -0.02060        0.32947
H          5.93243       -0.67154       -0.46271
H          7.22935        0.43292        0.03096
H          6.44849       -0.62513        1.22155
