 18
 #Generated by chemFileConvert.py
  O           -0.2087770    -0.2168710    -1.0324060
  H            0.7111260    -0.3868920    -0.7739620
  C           -1.0221730    -0.7411710    -0.0054540
  H           -2.0574910    -0.5387070    -0.2685970
  H           -0.9077430    -1.8218260     0.1085370
  H           -0.8246310    -0.2754950     0.9646450
  C            1.9090190     1.9026630     0.4100510
  H            2.4154120     2.8641120     0.3751810
  H            1.4984750     1.7565270     1.4079280
  H            1.0793710     1.8931500    -0.2914550
  C            2.8246490     0.7477240     0.0941350
  O            2.4004540    -0.3721870    -0.1909470
  N            4.1507860     1.0094480     0.1533340
  H            4.4487980     1.9198760     0.4510210
  C            5.1331920    -0.0306630    -0.0694100
  H            4.7766350    -0.6816000    -0.8615870
  H            6.0735610     0.4228610    -0.3679230
  H            5.2927020    -0.6351900     0.8226660
