 18
 #Generated by chemFileConvert.py
  O           -0.2087770    -0.2168710    -1.0324060
  H            0.7111260    -0.3868920    -0.7739620
  C           -1.0221730    -0.7411710    -0.0054540
  H           -2.0574910    -0.5387070    -0.2685970
  H           -0.9077430    -1.8218260     0.1085370
  H           -0.8246310    -0.2754950     0.9646450
  C            2.1757400     1.9049850     0.5021010
  H            2.6821330     2.8664340     0.4672300
  H            1.7651960     1.7588490     1.4999770
  H            1.3460920     1.8954710    -0.1994050
  C            3.0913700     0.7500460     0.1861850
  O            2.6671750    -0.3698650    -0.0988970
  N            4.4175070     1.0117700     0.2453840
  H            4.7155200     1.9221980     0.5430710
  C            5.3999130    -0.0283410     0.0226400
  H            5.0433560    -0.6792790    -0.7695370
  H            6.3402820     0.4251830    -0.2758740
  H            5.5594230    -0.6328680     0.9147160
