 18
 #Generated by chemFileConvert.py
  O           -0.2087770    -0.2168710    -1.0324060
  H            0.7111260    -0.3868920    -0.7739620
  C           -1.0221730    -0.7411710    -0.0054540
  H           -2.0574910    -0.5387070    -0.2685970
  H           -0.9077430    -1.8218260     0.1085370
  H           -0.8246310    -0.2754950     0.9646450
  C            2.0868330     1.9042110     0.4714170
  H            2.5932260     2.8656600     0.4365470
  H            1.6762890     1.7580750     1.4692940
  H            1.2571850     1.8946970    -0.2300880
  C            3.0024630     0.7492720     0.1555010
  O            2.5782680    -0.3706390    -0.1295800
  N            4.3286000     1.0109960     0.2147010
  H            4.6266120     1.9214240     0.5123880
  C            5.3110060    -0.0291150    -0.0080430
  H            4.9544490    -0.6800530    -0.8002200
  H            6.2513750     0.4244090    -0.3065570
  H            5.4705160    -0.6336420     0.8840320
