 18
 #Generated by chemFileConvert.py
  O           -0.2087770    -0.2168710    -1.0324060
  H            0.7111260    -0.3868920    -0.7739620
  C           -1.0221730    -0.7411710    -0.0054540
  H           -2.0574910    -0.5387070    -0.2685970
  H           -0.9077430    -1.8218260     0.1085370
  H           -0.8246310    -0.2754950     0.9646450
  C            1.9978310     1.9034360     0.4407020
  H            2.5042250     2.8648850     0.4058310
  H            1.5872870     1.7573000     1.4385780
  H            1.1681830     1.8939230    -0.2608040
  C            2.9134620     0.7484970     0.1247850
  O            2.4892670    -0.3714140    -0.1602960
  N            4.2395980     1.0102210     0.1839850
  H            4.5376110     1.9206490     0.4816720
  C            5.2220050    -0.0298900    -0.0387590
  H            4.8654470    -0.6808270    -0.8309360
  H            6.1623740     0.4236340    -0.3372730
  H            5.3815150    -0.6344170     0.8533160
