  9
 #Generated by chemFileConvert.py
  O           -0.7865620     0.0451680    -0.0071890
  H            0.1777070     0.0126960    -0.0068350
  C           -1.2479910    -1.2902840     0.0010840
  H           -2.3342770    -1.2588970     0.0002210
  H           -0.9259660    -1.8497680    -0.8804450
  H           -0.9270280    -1.8384630     0.8900770
  O            2.3603630    -0.0589330    -0.0044920
  H            2.7995670     0.3292190    -0.7643650
  H            2.7982470     0.3436710     0.7485970
