9
008_MeOH-Water_1.30.txyz
O         -0.78656        0.04517       -0.00719
H          0.17771        0.01270       -0.00683
C         -1.24799       -1.29028        0.00108
H         -2.33428       -1.25890        0.00022
H         -0.92597       -1.84977       -0.88045
H         -0.92703       -1.83846        0.89008
O          2.75719       -0.07196       -0.00407
H          3.19639        0.31620       -0.76394
H          3.19508        0.33065        0.74902
