 13
 #Generated by chemFileConvert.py
  N           -0.8934510    -0.0438440    -0.0429970
  H            0.0969480    -0.2560590    -0.0710700
  H           -1.3684390    -0.9333910     0.0338380
  C           -1.1757820     0.7579080     1.1452370
  H           -2.2416270     0.9722160     1.1950250
  H           -0.8807900     0.3042470     2.0972090
  H           -0.6630060     1.7143290     1.0608090
  O            2.3470290    -0.0415100     0.0306540
  H            2.6290550     0.3284380    -0.8092100
  C            2.7329430     0.8700740     1.0500900
  H            2.4097600     0.4404410     1.9931570
  H            3.8139980     1.0091570     1.0891300
  H            2.2544690     1.8436720     0.9349140
