 13
 #Generated by chemFileConvert.py
  N           -0.8934510    -0.0438440    -0.0429970
  H            0.0969480    -0.2560590    -0.0710700
  H           -1.3684390    -0.9333910     0.0338380
  C           -1.1757820     0.7579080     1.1452370
  H           -2.2416270     0.9722160     1.1950250
  H           -0.8807900     0.3042470     2.0972090
  H           -0.6630060     1.7143290     1.0608090
  O            1.6720050    -0.1058750     0.0001370
  H            1.9540310     0.2640740    -0.8397270
  C            2.0579190     0.8057090     1.0195730
  H            1.7347360     0.3760770     1.9626390
  H            3.1389740     0.9447930     1.0586130
  H            1.5794440     1.7793070     0.9043960
