14
010_MeNH2-MeNH2_1.60.txyz
N         -0.63864        0.47092        0.04457
H          0.18995       -0.11394       -0.00577
H         -1.30047        0.08126       -0.61367
C         -1.19866        0.39140        1.39195
H         -2.09274        1.00924        1.45317
H         -1.46275       -0.61584        1.72945
H         -0.48028        0.79868        2.10109
N          3.77510       -0.66834        0.32340
H          4.07137       -0.39380       -0.60458
H          4.39865       -1.41603        0.59860
C          3.93533        0.46688        1.23708
H          3.66514        0.15218        2.24273
H          4.94274        0.88865        1.27405
H          3.24279        1.25265        0.94442
