 14
 #Generated by chemFileConvert.py
  N           -0.6386410     0.4709160     0.0445680
  H            0.1899540    -0.1139370    -0.0057740
  H           -1.3004690     0.0812570    -0.6136680
  C           -1.1986590     0.3913990     1.3919470
  H           -2.0927380     1.0092450     1.4531670
  H           -1.4627460    -0.6158440     1.7294520
  H           -0.4802760     0.7986750     2.1010870
  N            2.2066430    -0.4257920     0.1793930
  H            2.5029120    -0.1512540    -0.7485930
  H            2.8301930    -1.1734820     0.4545880
  C            2.3668730     0.7094190     1.0930680
  H            2.0966830     0.3947230     2.0987210
  H            3.3742830     1.1311950     1.1300400
  H            1.6743330     1.4951940     0.8004110
