 14
 #Generated by chemFileConvert.py
  N           -0.6386410     0.4709160     0.0445680
  H            0.1899540    -0.1139370    -0.0057740
  H           -1.3004690     0.0812570    -0.6136680
  C           -1.1986590     0.3913990     1.3919470
  H           -2.0927380     1.0092450     1.4531670
  H           -1.4627460    -0.6158440     1.7294520
  H           -0.4802760     0.7986750     2.1010870
  N            2.4306100    -0.4604260     0.1999570
  H            2.7268790    -0.1858880    -0.7280290
  H            3.0541600    -1.2081160     0.4751520
  C            2.5908400     0.6747850     1.1136320
  H            2.3206500     0.3600890     2.1192850
  H            3.5982500     1.0965610     1.1506040
  H            1.8983000     1.4605600     0.8209750
