 19
 #Generated by chemFileConvert.py
  N           -0.5697080     0.8143720     0.1010980
  H            0.1308780     0.5614110    -0.5876150
  H           -1.4612520     0.5269150    -0.2804300
  C           -0.3055140     0.0657100     1.3287920
  H           -1.0571490     0.3142700     2.0759590
  H           -0.2880240    -1.0222920     1.2148460
  H            0.6604580     0.3685090     1.7302420
  C            1.6293750     2.7347130    -0.0632990
  H            1.7539930     3.1458890    -1.0623430
  H            2.1359460     3.3757050     0.6544860
  H            0.5629630     2.7081830     0.1551230
  C            2.1413670     1.3169150    -0.0610050
  O            1.6813870     0.4511790    -0.8001790
  N            3.1278500     1.0438830     0.8313260
  H            3.5276110     1.7988150     1.3566790
  C            3.7162950    -0.2757080     0.9088260
  H            2.9281180    -1.0170380     0.8158050
  H            4.4375550    -0.4477030     0.1102810
  H            4.2109480    -0.3915760     1.8687650
