 19
 #Generated by chemFileConvert.py
  N           -0.5697080     0.8143720     0.1010980
  H            0.1308780     0.5614110    -0.5876150
  H           -1.4612520     0.5269150    -0.2804300
  C           -0.3055140     0.0657100     1.3287920
  H           -1.0571490     0.3142700     2.0759590
  H           -0.2880240    -1.0222920     1.2148460
  H            0.6604580     0.3685090     1.7302420
  C            2.4047280     2.6795900    -0.1695950
  H            2.5293470     3.0907660    -1.1686390
  H            2.9113000     3.3205820     0.5481900
  H            1.3383160     2.6530600     0.0488270
  C            2.9167200     1.2617920    -0.1673010
  O            2.4567400     0.3960550    -0.9064750
  N            3.9032030     0.9887600     0.7250300
  H            4.3029640     1.7436920     1.2503830
  C            4.4916480    -0.3308310     0.8025300
  H            3.7034720    -1.0721610     0.7095090
  H            5.2129080    -0.5028260     0.0039850
  H            4.9863020    -0.4466990     1.7624690
