 10
 #Generated by chemFileConvert.py
  N           -0.5334640    -0.2795940     0.1069960
  H           -0.6291510    -1.2484250     0.3828490
  H           -1.1226040    -0.1661590    -0.7077640
  C           -1.0169090     0.5884860     1.1873730
  H           -0.9127600     1.6255520     0.8795210
  H           -2.0547370     0.4150820     1.4785040
  H           -0.3850230     0.4488010     2.0606140
  O            1.5754720     0.7167910     0.2315740
  H            0.7579540     0.2205180     0.0584210
  H            2.1573730     0.4582930    -0.4841730
