10
012_MeNH2-Water_1.30.txyz
N         -0.53346       -0.27959        0.10700
H         -0.62915       -1.24842        0.38285
H         -1.12260       -0.16616       -0.70776
C         -1.01691        0.58849        1.18737
H         -0.91276        1.62555        0.87952
H         -2.05474        0.41508        1.47850
H         -0.38502        0.44880        2.06061
O          2.68249        1.14549        0.18993
H          1.86498        0.64922        0.01678
H          3.26439        0.88699       -0.52581
