 10
 #Generated by chemFileConvert.py
  N           -0.5334640    -0.2795940     0.1069960
  H           -0.6291510    -1.2484250     0.3828490
  H           -1.1226040    -0.1661590    -0.7077640
  C           -1.0169090     0.5884860     1.1873730
  H           -0.9127600     1.6255520     0.8795210
  H           -2.0547370     0.4150820     1.4785040
  H           -0.3850230     0.4488010     2.0606140
  O            2.1289360     0.9311240     0.2107560
  H            1.3114190     0.4348520     0.0376030
  H            2.7108380     0.6726260    -0.5049900
