 10
 #Generated by chemFileConvert.py
  N           -0.5334640    -0.2795940     0.1069960
  H           -0.6291510    -1.2484250     0.3828490
  H           -1.1226040    -0.1661590    -0.7077640
  C           -1.0169090     0.5884860     1.1873730
  H           -0.9127600     1.6255520     0.8795210
  H           -2.0547370     0.4150820     1.4785040
  H           -0.3850230     0.4488010     2.0606140
  O            2.0367850     0.8954380     0.2142220
  H            1.2192680     0.3991650     0.0410690
  H            2.6186870     0.6369400    -0.5015240
