 18
 #Generated by chemFileConvert.py
  C           -0.8493170    -0.3394990     2.4917170
  H            0.1843440    -0.0110470     2.4161850
  H           -0.8824980    -1.3420510     2.9127030
  H           -1.3908030     0.3168780     3.1684290
  C           -1.5640320    -0.3533230     1.1594750
  O           -2.7495260    -0.6515380     1.0567610
  N           -0.8016540    -0.0273550     0.0883420
  H            0.1611880     0.2403600     0.2187140
  C           -1.3853500    -0.0023510    -1.2341370
  H           -1.8916170    -0.9428010    -1.4400960
  H           -2.1199720     0.7962120    -1.3308800
  H           -0.5946460     0.1495710    -1.9631280
  O            1.5616550     0.2486230     0.3852810
  H            2.2825090     0.8759220     0.4756960
  C            2.0807390    -1.0567430     0.6191630
  H            1.2481670    -1.7455310     0.5135860
  H            2.8468770    -1.3257360    -0.1077180
  H            2.4888360    -1.1581920     1.6247970
