 18
 #Generated by chemFileConvert.py
  C           -0.8493170    -0.3394990     2.4917170
  H            0.1843440    -0.0110470     2.4161850
  H           -0.8824980    -1.3420510     2.9127030
  H           -1.3908030     0.3168780     3.1684290
  C           -1.5640320    -0.3533230     1.1594750
  O           -2.7495260    -0.6515380     1.0567610
  N           -0.8016540    -0.0273550     0.0883420
  H            0.1611880     0.2403600     0.2187140
  C           -1.3853500    -0.0023510    -1.2341370
  H           -1.8916170    -0.9428010    -1.4400960
  H           -2.1199720     0.7962120    -1.3308800
  H           -0.5946460     0.1495710    -1.9631280
  O            2.2619870     0.2527540     0.4685770
  H            2.9828420     0.8800540     0.5589910
  C            2.7810720    -1.0526110     0.7024580
  H            1.9485000    -1.7413990     0.5968820
  H            3.5472100    -1.3216040    -0.0244220
  H            3.1891690    -1.1540600     1.7080930
