19
014_Peptide-MeNH2_1.30.txyz
C         -0.77857       -0.46332        2.49039
H          0.22475       -0.05095        2.41348
H         -0.72248       -1.48709        2.85459
H         -1.35191        0.11082        3.21368
C         -1.52050       -0.45663        1.17233
O         -2.70084       -0.78359        1.08960
N         -0.79195       -0.06964        0.10059
H          0.19411        0.14571        0.20292
C         -1.39780       -0.05608       -1.21132
H         -2.31493        0.52889       -1.19971
H         -0.69880        0.38726       -1.91537
H         -1.65298       -1.06153       -1.54543
N          2.87383        0.28842        0.30727
H          3.27750        0.82834        1.06247
H          3.29183        0.65580       -0.53838
C          3.24613       -1.12276        0.46102
H          2.81985       -1.69379       -0.36036
H          4.32153       -1.30945        0.48680
H          2.81166       -1.50717        1.38085
