 19
 #Generated by chemFileConvert.py
  C           -0.7785730    -0.4633210     2.4903880
  H            0.2247450    -0.0509530     2.4134840
  H           -0.7224800    -1.4870920     2.8545850
  H           -1.3519080     0.1108170     3.2136840
  C           -1.5205030    -0.4566280     1.1723250
  O           -2.7008350    -0.7835860     1.0895970
  N           -0.7919540    -0.0696400     0.1005890
  H            0.1941120     0.1457080     0.2029250
  C           -1.3977980    -0.0560820    -1.2113180
  H           -2.3149280     0.5288910    -1.1997100
  H           -0.6988040     0.3872610    -1.9153660
  H           -1.6529820    -1.0615290    -1.5454350
  N            1.6369830     0.2225510     0.2591060
  H            2.0406490     0.7624700     1.0143060
  H            2.0549870     0.5899320    -0.5865400
  C            2.0092860    -1.1886320     0.4128590
  H            1.5829990    -1.7596650    -0.4085170
  H            3.0846850    -1.3753220     0.4386420
  H            1.5748130    -1.5730390     1.3326950
