19
014_Peptide-MeNH2_1.60.txyz
C         -0.77857       -0.46332        2.49039
H          0.22475       -0.05095        2.41348
H         -0.72248       -1.48709        2.85459
H         -1.35191        0.11082        3.21368
C         -1.52050       -0.45663        1.17233
O         -2.70084       -0.78359        1.08960
N         -0.79195       -0.06964        0.10059
H          0.19411        0.14571        0.20292
C         -1.39780       -0.05608       -1.21132
H         -2.31493        0.52889       -1.19971
H         -0.69880        0.38726       -1.91537
H         -1.65298       -1.06153       -1.54543
N          3.49221        0.32135        0.33134
H          3.89587        0.86127        1.08654
H          3.91021        0.68873       -0.51430
C          3.86451       -1.08983        0.48510
H          3.43822       -1.66086       -0.33628
H          4.93991       -1.27652        0.51088
H          3.43004       -1.47424        1.40493
