24
015_Peptide-Peptide_1.90.txyz
C         -0.70150       -0.29063        2.40688
H         -1.18330        0.39565        3.09887
H          0.34956       -0.03032        2.30783
H         -0.79406       -1.29160        2.82404
C         -1.44855       -0.24488        1.09181
O         -2.66045       -0.42848        1.03435
N         -0.67006        0.00592        0.00978
H          0.32667        0.12256        0.14159
C         -1.22706        0.08979       -1.31997
H         -2.29202       -0.10650       -1.24088
H         -1.07780        1.07994       -1.74854
H         -0.77663       -0.64800       -1.98337
C          3.82775       -2.46085        0.82613
H          4.38598       -3.37085        0.62023
H          2.89906       -2.46738        0.26181
H          3.56853       -2.43740        1.88308
C          4.59539       -1.20644        0.48990
O          4.05020       -0.10500        0.43293
N          5.92215       -1.37525        0.27615
H          6.29847       -2.30250        0.35291
C          6.80938       -0.26879       -0.01280
H          6.19519        0.62202       -0.09262
H          7.53680       -0.12932        0.78460
H          7.33437       -0.42877       -0.95194
