 24
 #Generated by chemFileConvert.py
  C           -0.7015030    -0.2906280     2.4068840
  H           -1.1832960     0.3956480     3.0988740
  H            0.3495620    -0.0303220     2.3078330
  H           -0.7940570    -1.2916050     2.8240390
  C           -1.4485460    -0.2448770     1.0918150
  O           -2.6604500    -0.4284790     1.0343460
  N           -0.6700570     0.0059170     0.0097770
  H            0.3266750     0.1225640     0.1415930
  C           -1.2270550     0.0897940    -1.3199680
  H           -2.2920240    -0.1065010    -1.2408780
  H           -1.0778020     1.0799400    -1.7485440
  H           -0.7766280    -0.6479990    -1.9833730
  C            2.2599910    -2.3650340     0.7034710
  H            2.8182160    -3.2750370     0.4975630
  H            1.3312990    -2.3715640     0.1391460
  H            2.0007720    -2.3415880     1.7604120
  C            3.0276270    -1.1106220     0.3672340
  O            2.4824400    -0.0091850     0.3102620
  N            4.3543850    -1.2794360     0.1534860
  H            4.7307060    -2.2066820     0.2302440
  C            5.2416230    -0.1729700    -0.1354620
  H            4.6274310     0.7178400    -0.2152860
  H            5.9690380    -0.0335040     0.6619410
  H            5.7666140    -0.3329520    -1.0746050
