 24
 #Generated by chemFileConvert.py
  C           -0.7015030    -0.2906280     2.4068840
  H           -1.1832960     0.3956480     3.0988740
  H            0.3495620    -0.0303220     2.3078330
  H           -0.7940570    -1.2916050     2.8240390
  C           -1.4485460    -0.2448770     1.0918150
  O           -2.6604500    -0.4284790     1.0343460
  N           -0.6700570     0.0059170     0.0097770
  H            0.3266750     0.1225640     0.1415930
  C           -1.2270550     0.0897940    -1.3199680
  H           -2.2920240    -0.1065010    -1.2408780
  H           -1.0778020     1.0799400    -1.7485440
  H           -0.7766280    -0.6479990    -1.9833730
  C            1.6719830    -2.3290980     0.6574650
  H            2.2302080    -3.2391010     0.4515570
  H            0.7432910    -2.3356280     0.0931390
  H            1.4127640    -2.3056510     1.7144060
  C            2.4396190    -1.0746860     0.3212280
  O            1.8944320     0.0267510     0.2642560
  N            3.7663770    -1.2435000     0.1074800
  H            4.1426980    -2.1707460     0.1842370
  C            4.6536150    -0.1370340    -0.1814690
  H            4.0394230     0.7537760    -0.2612920
  H            5.3810300     0.0024320     0.6159350
  H            5.1786050    -0.2970160    -1.1206110
