 24
 #Generated by chemFileConvert.py
  C           -0.7015030    -0.2906280     2.4068840
  H           -1.1832960     0.3956480     3.0988740
  H            0.3495620    -0.0303220     2.3078330
  H           -0.7940570    -1.2916050     2.8240390
  C           -1.4485460    -0.2448770     1.0918150
  O           -2.6604500    -0.4284790     1.0343460
  N           -0.6700570     0.0059170     0.0097770
  H            0.3266750     0.1225640     0.1415930
  C           -1.2270550     0.0897940    -1.3199680
  H           -2.2920240    -0.1065010    -1.2408780
  H           -1.0778020     1.0799400    -1.7485440
  H           -0.7766280    -0.6479990    -1.9833730
  C            1.8680520    -2.3410810     0.6728050
  H            2.4262770    -3.2510840     0.4668970
  H            0.9393600    -2.3476100     0.1084800
  H            1.6088330    -2.3176340     1.7297460
  C            2.6356880    -1.0866690     0.3365690
  O            2.0905010     0.0147680     0.2795960
  N            3.9624460    -1.2554830     0.1228210
  H            4.3387670    -2.1827280     0.1995780
  C            4.8496840    -0.1490170    -0.1661280
  H            4.2354920     0.7417930    -0.2459520
  H            5.5770990    -0.0095510     0.6312750
  H            5.3746740    -0.3089980    -1.1052700
