 24
 #Generated by chemFileConvert.py
  C           -0.7015030    -0.2906280     2.4068840
  H           -1.1832960     0.3956480     3.0988740
  H            0.3495620    -0.0303220     2.3078330
  H           -0.7940570    -1.2916050     2.8240390
  C           -1.4485460    -0.2448770     1.0918150
  O           -2.6604500    -0.4284790     1.0343460
  N           -0.6700570     0.0059170     0.0097770
  H            0.3266750     0.1225640     0.1415930
  C           -1.2270550     0.0897940    -1.3199680
  H           -2.2920240    -0.1065010    -1.2408780
  H           -1.0778020     1.0799400    -1.7485440
  H           -0.7766280    -0.6479990    -1.9833730
  C            1.4760130    -2.3171210     0.6421320
  H            2.0342380    -3.2271250     0.4362240
  H            0.5473210    -2.3236510     0.0778060
  H            1.2167940    -2.2936750     1.6990730
  C            2.2436490    -1.0627090     0.3058950
  O            1.6984620     0.0387270     0.2489230
  N            3.5704070    -1.2315230     0.0921470
  H            3.9467290    -2.1587690     0.1689040
  C            4.4576450    -0.1250570    -0.1968010
  H            3.8434530     0.7657530    -0.2766250
  H            5.1850600     0.0144080     0.6006020
  H            4.9826360    -0.2850390    -1.1359440
