24
015_Peptide-Peptide_1.60.txyz
C         -0.70150       -0.29063        2.40688
H         -1.18330        0.39565        3.09887
H          0.34956       -0.03032        2.30783
H         -0.79406       -1.29160        2.82404
C         -1.44855       -0.24488        1.09181
O         -2.66045       -0.42848        1.03435
N         -0.67006        0.00592        0.00978
H          0.32667        0.12256        0.14159
C         -1.22706        0.08979       -1.31997
H         -2.29202       -0.10650       -1.24088
H         -1.07780        1.07994       -1.74854
H         -0.77663       -0.64800       -1.98337
C          3.23984       -2.42492        0.78014
H          3.79807       -3.33492        0.57423
H          2.31115       -2.43145        0.21581
H          2.98062       -2.40147        1.83708
C          4.00748       -1.17051        0.44390
O          3.46229       -0.06907        0.38693
N          5.33423       -1.33932        0.23015
H          5.71056       -2.26657        0.30691
C          6.22147       -0.23286       -0.05880
H          5.60728        0.65795       -0.13862
H          6.94889       -0.09339        0.73861
H          6.74646       -0.39284       -0.99794
