 15
 #Generated by chemFileConvert.py
  C           -0.7243050    -0.7049360     2.2838680
  H            0.3353180    -0.6299430     2.0531820
  H           -0.9516970    -1.7119900     2.6256510
  H           -0.9696280    -0.0220800     3.0937650
  C           -1.6149350    -0.3874290     1.1040690
  O           -2.8373240    -0.4150220     1.1941330
  N           -0.9534200    -0.0764040    -0.0408200
  H            0.0538090    -0.0755670    -0.0366400
  C           -1.6581240     0.2500940    -1.2585530
  H           -2.7203720     0.1769440    -1.0466530
  H           -1.4303050     1.2629630    -1.5880940
  H           -1.4056260    -0.4443350    -2.0585840
  O            2.3389720    -0.0564290    -0.1687290
  H            2.9039490    -0.7693880    -0.4739290
  H            2.9187230     0.7077650    -0.1448310
