 24
 #Generated by chemFileConvert.py
  N           -0.7299990     0.0227680     0.0009150
  H            0.2984230     0.0740040     0.0016230
  C           -1.2968250    -1.2404270     0.0015020
  O           -0.5940990    -2.2535180     0.0026340
  C           -2.7436220    -1.2623320     0.0004790
  H           -3.2495900    -2.2118350     0.0008330
  C           -3.4220200    -0.0959090    -0.0009230
  H           -4.5008970    -0.0492160    -0.0017450
  N           -2.7748370     1.1054090    -0.0014180
  H           -3.2838380     1.9738770    -0.0024860
  C           -1.3914790     1.2370200    -0.0005250
  O           -0.8398440     2.3170350    -0.0010010
  N            4.0641400    -1.0815510     0.0004990
  H            4.5113840    -0.1749780     0.0008860
  C            4.9201880    -2.1961690    -0.0010010
  O            6.1296400    -2.0444650    -0.0017500
  C            4.2059690    -3.4583420    -0.0015050
  H            4.7725540    -4.3733730    -0.0026440
  C            2.8558000    -3.4621600    -0.0005450
  H            2.2788370    -4.3751250    -0.0008640
  N            2.1178090    -2.3112790     0.0009050
  H            1.0914730    -2.3327220     0.0015820
  C            2.6905800    -1.0666140     0.0014560
  O            2.0402590    -0.0253960     0.0026920
