 14
 #Generated by chemFileConvert.py
  O           -0.5528310    -0.1016970    -0.0004990
  H           -0.8717600     0.8017920     0.0001440
  H            0.4126590    -0.0018320    -0.0002520
  N            2.4056440     0.0987230     0.0001550
  C            3.1015510     0.0647520     1.1449030
  H            2.5168780     0.0883630     2.0557710
  C            4.4905740    -0.0004300     1.1948990
  H            4.9964810    -0.0252850     2.1492280
  C            5.2017380    -0.0335560    -0.0000120
  H            6.2815780    -0.0853300    -0.0000920
  C            4.4904290    -0.0004970    -1.1948130
  H            4.9962260    -0.0253700    -2.1492120
  C            3.1013990     0.0646980    -1.1446670
  H            2.5166300     0.0882990    -2.0554600
