 14
 #Generated by chemFileConvert.py
  O           -0.5528310    -0.1016970    -0.0004990
  H           -0.8717600     0.8017920     0.0001440
  H            0.4126590    -0.0018320    -0.0002520
  N            1.8077490     0.0685560     0.0000330
  C            2.5036550     0.0345850     1.1447810
  H            1.9189830     0.0581960     2.0556490
  C            3.8926790    -0.0305970     1.1947770
  H            4.3985850    -0.0554510     2.1491060
  C            4.6038420    -0.0637230    -0.0001340
  H            5.6836820    -0.1154960    -0.0002140
  C            3.8925340    -0.0306640    -1.1949350
  H            4.3983310    -0.0555370    -2.1493340
  C            2.5035040     0.0345310    -1.1447890
  H            1.9187350     0.0581320    -2.0555820
