 14
 #Generated by chemFileConvert.py
  O           -0.5528310    -0.1016970    -0.0004990
  H           -0.8717600     0.8017920     0.0001440
  H            0.4126590    -0.0018320    -0.0002520
  N            2.6050430     0.1087830     0.0001960
  C            3.3009490     0.0748130     1.1449440
  H            2.7162770     0.0984230     2.0558120
  C            4.6899730     0.0096300     1.1949400
  H            5.1958790    -0.0152240     2.1492690
  C            5.4011360    -0.0234960     0.0000290
  H            6.4809760    -0.0752690    -0.0000520
  C            4.6898280     0.0095630    -1.1947720
  H            5.1956250    -0.0153100    -2.1491710
  C            3.3007980     0.0747580    -1.1446260
  H            2.7160290     0.0983590    -2.0554190
