 17
 #Generated by chemFileConvert.py
  O           -0.6276520     0.0874670     0.0014710
  H            0.3436020     0.1223030    -0.0006000
  C           -0.9779310    -1.2785560     0.0012380
  H           -2.0633920    -1.3420430     0.0050090
  H           -0.6148840    -1.8063760    -0.8853840
  H           -0.6086400    -1.8082370     0.8841730
  N            2.4885420     0.0045640    -0.0017420
  C            3.1849110    -0.0198710    -1.1464610
  H            2.6004320     0.0033530    -2.0574370
  C            4.5745480    -0.0696140    -1.1951470
  H            5.0819000    -0.0869060    -2.1489290
  C            5.2849210    -0.0953260     0.0004660
  H            6.3652570    -0.1330910     0.0013160
  C            4.5726740    -0.0703050     1.1950060
  H            5.0784720    -0.0881300     2.1494920
  C            3.1831200    -0.0205560     1.1440520
  H            2.5971140     0.0021190     2.0541710
