17
019_MeOH-Pyridine_1.60.txyz
O         -0.62765        0.08747        0.00147
H          0.34360        0.12230       -0.00060
C         -0.97793       -1.27856        0.00124
H         -2.06339       -1.34204        0.00501
H         -0.61488       -1.80638       -0.88538
H         -0.60864       -1.80824        0.88417
N          3.46347       -0.04895       -0.00226
C          4.15984       -0.07339       -1.14698
H          3.57536       -0.05016       -2.05796
C          5.54947       -0.12313       -1.19567
H          6.05682       -0.14042       -2.14945
C          6.25985       -0.14884       -0.00005
H          7.34018       -0.18661        0.00080
C          5.54760       -0.12382        1.19449
H          6.05340       -0.14164        2.14897
C          4.15805       -0.07407        1.14353
H          3.57204       -0.05140        2.05365
