 17
 #Generated by chemFileConvert.py
  O           -0.6276520     0.0874670     0.0014710
  H            0.3436020     0.1223030    -0.0006000
  C           -0.9779310    -1.2785560     0.0012380
  H           -2.0633920    -1.3420430     0.0050090
  H           -0.6148840    -1.8063760    -0.8853840
  H           -0.6086400    -1.8082370     0.8841730
  N            1.9034860     0.0366790    -0.0014310
  C            2.5998540     0.0122440    -1.1461500
  H            2.0153760     0.0354670    -2.0571260
  C            3.9894920    -0.0374990    -1.1948350
  H            4.4968440    -0.0547910    -2.1486180
  C            4.6998650    -0.0632120     0.0007780
  H            5.7802010    -0.1009770     0.0016270
  C            3.9876170    -0.0381910     1.1953170
  H            4.4934160    -0.0560150     2.1498030
  C            2.5980640     0.0115590     1.1443630
  H            2.0120580     0.0342330     2.0544820
