 16
 #Generated by chemFileConvert.py
  C           -1.0617090     1.2971410     0.2920600
  O           -0.3581610     2.2704590     0.5318130
  O           -0.5893040     0.0949180     0.0037890
  H            0.4044360     0.1277230     0.0184120
  C           -2.5584280     1.3425500     0.2962570
  H           -2.8959980     2.3474640     0.5183160
  H           -2.9328890     1.0223900    -0.6729960
  H           -2.9372120     0.6449100     1.0395570
  C            2.4612630     1.1069560     0.2686960
  O            1.7576440     0.1336410     0.0289090
  O            1.9888360     2.3093910     0.5564750
  H            0.9950480     2.2764930     0.5420740
  C            3.9579750     1.0610530     0.2667320
  H            4.2955550     0.0597340     0.0292070
  H            4.3394740     1.7714060    -0.4627370
  H            4.3294910     1.3637480     1.2427870
