16
020_AcOH-AcOH_1.60.txyz
C         -1.06171        1.29714        0.29206
O         -0.35816        2.27046        0.53181
O         -0.58930        0.09492        0.00379
H          0.40444        0.12772        0.01841
C         -2.55843        1.34255        0.29626
H         -2.89600        2.34746        0.51832
H         -2.93289        1.02239       -0.67300
H         -2.93721        0.64491        1.03956
C          3.81457        1.11298        0.27897
O          3.11095        0.13967        0.03918
O          3.34214        2.31542        0.56675
H          2.34836        2.28252        0.55234
C          5.31128        1.06708        0.27700
H          5.64886        0.06576        0.03948
H          5.69278        1.77743       -0.45247
H          5.68280        1.36977        1.25306
