16
020_AcOH-AcOH_1.90.txyz
C         -1.06171        1.29714        0.29206
O         -0.35816        2.27046        0.53181
O         -0.58930        0.09492        0.00379
H          0.40444        0.12772        0.01841
C         -2.55843        1.34255        0.29626
H         -2.89600        2.34746        0.51832
H         -2.93289        1.02239       -0.67300
H         -2.93721        0.64491        1.03956
C          4.32202        1.11525        0.28281
O          3.61841        0.14193        0.04303
O          3.84960        2.31768        0.57059
H          2.85581        2.28478        0.55619
C          5.81874        1.06934        0.28085
H          6.15632        0.06802        0.04332
H          6.20024        1.77970       -0.44862
H          6.19025        1.37204        1.25690
