 16
 #Generated by chemFileConvert.py
  C           -1.0617090     1.2971410     0.2920600
  O           -0.3581610     2.2704590     0.5318130
  O           -0.5893040     0.0949180     0.0037890
  H            0.4044360     0.1277230     0.0184120
  C           -2.5584280     1.3425500     0.2962570
  H           -2.8959980     2.3474640     0.5183160
  H           -2.9328890     1.0223900    -0.6729960
  H           -2.9372120     0.6449100     1.0395570
  C            2.8842400     1.1088390     0.2719100
  O            2.1806220     0.1355250     0.0321220
  O            2.4118140     2.3112750     0.5596880
  H            1.4180260     2.2783760     0.5452880
  C            4.3809530     1.0629360     0.2699460
  H            4.7185330     0.0616170     0.0324200
  H            4.7624510     1.7732890    -0.4595230
  H            4.7524690     1.3656310     1.2460010
