 16
 #Generated by chemFileConvert.py
  C           -1.0617090     1.2971410     0.2920600
  O           -0.3581610     2.2704590     0.5318130
  O           -0.5893040     0.0949180     0.0037890
  H            0.4044360     0.1277230     0.0184120
  C           -2.5584280     1.3425500     0.2962570
  H           -2.8959980     2.3474640     0.5183160
  H           -2.9328890     1.0223900    -0.6729960
  H           -2.9372120     0.6449100     1.0395570
  C            2.9688160     1.1092130     0.2725570
  O            2.2651980     0.1358990     0.0327700
  O            2.4963900     2.3116490     0.5603360
  H            1.5026010     2.2787510     0.5459350
  C            4.4655280     1.0633110     0.2705930
  H            4.8031080     0.0619910     0.0330670
  H            4.8470270     1.7736640    -0.4588760
  H            4.8370450     1.3660050     1.2466480
