 16
 #Generated by chemFileConvert.py
  C           -1.0617090     1.2971410     0.2920600
  O           -0.3581610     2.2704590     0.5318130
  O           -0.5893040     0.0949180     0.0037890
  H            0.4044360     0.1277230     0.0184120
  C           -2.5584280     1.3425500     0.2962570
  H           -2.8959980     2.3474640     0.5183160
  H           -2.9328890     1.0223900    -0.6729960
  H           -2.9372120     0.6449100     1.0395570
  C            2.2921120     1.1062020     0.2674140
  O            1.5884930     0.1328870     0.0276260
  O            1.8196850     2.3086370     0.5551920
  H            0.8258970     2.2757390     0.5407920
  C            3.7888240     1.0602990     0.2654490
  H            4.1264040     0.0589800     0.0279240
  H            4.1703230     1.7706520    -0.4640200
  H            4.1603400     1.3629930     1.2415050
