 18
 #Generated by chemFileConvert.py
  C           -1.3097500     1.1801760    -0.0251700
  O           -0.7253000     2.1551480     0.4527130
  N           -0.6656210     0.0950550    -0.4919940
  H            0.3545830     0.0514480    -0.4593090
  H           -1.1836270    -0.6736000    -0.8707560
  C           -2.8167190     1.1559990    -0.1106060
  H           -3.2206290     1.2625410     0.8930820
  H           -3.2094280     0.2486340    -0.5619000
  H           -3.1431580     2.0165960    -0.6888930
  C            2.2374230     1.0525680     0.1007990
  O            1.6530010     0.0785470    -0.3789320
  N            1.5933360     2.1373110     0.5686460
  H            0.5732300     2.1817490     0.5343440
  H            2.1113600     2.9052720     0.9487660
  C            3.7444220     1.0768520     0.1860240
  H            4.1362930     1.9765020     0.6532080
  H            4.1479780     0.9893070    -0.8197560
  H            4.0722010     0.2062770     0.7482040
