 18
 #Generated by chemFileConvert.py
  C           -1.3097500     1.1801760    -0.0251700
  O           -0.7253000     2.1551480     0.4527130
  N           -0.6656210     0.0950550    -0.4919940
  H            0.3545830     0.0514480    -0.4593090
  H           -1.1836270    -0.6736000    -0.8707560
  C           -2.8167190     1.1559990    -0.1106060
  H           -3.2206290     1.2625410     0.8930820
  H           -3.2094280     0.2486340    -0.5619000
  H           -3.1431580     2.0165960    -0.6888930
  C            2.9794730     1.0680300     0.1467970
  O            2.3950510     0.0940100    -0.3329340
  N            2.3353860     2.1527730     0.6146440
  H            1.3152800     2.1972110     0.5803420
  H            2.8534100     2.9207350     0.9947640
  C            4.4864720     1.0923150     0.2320220
  H            4.8783430     1.9919640     0.6992060
  H            4.8900280     1.0047700    -0.7737580
  H            4.8142510     0.2217400     0.7942030
