18
021_AcNH2-AcNH2_1.30.txyz
C         -1.30975        1.18018       -0.02517
O         -0.72530        2.15515        0.45271
N         -0.66562        0.09506       -0.49199
H          0.35458        0.05145       -0.45931
H         -1.18363       -0.67360       -0.87076
C         -2.81672        1.15600       -0.11061
H         -3.22063        1.26254        0.89308
H         -3.20943        0.24863       -0.56190
H         -3.14316        2.01660       -0.68889
C          3.35045        1.07577        0.16976
O          2.76603        0.10175       -0.30997
N          2.70636        2.16052        0.63761
H          1.68626        2.20495        0.60331
H          3.22439        2.92848        1.01773
C          4.85745        1.10006        0.25499
H          5.24932        1.99971        0.72217
H          5.26100        1.01251       -0.75079
H          5.18523        0.22948        0.81717
