18
021_AcNH2-AcNH2_1.90.txyz
C         -1.30975        1.18018       -0.02517
O         -0.72530        2.15515        0.45271
N         -0.66562        0.09506       -0.49199
H          0.35458        0.05145       -0.45931
H         -1.18363       -0.67360       -0.87076
C         -2.81672        1.15600       -0.11061
H         -3.22063        1.26254        0.89308
H         -3.20943        0.24863       -0.56190
H         -3.14316        2.01660       -0.68889
C          4.46338        1.09900        0.23865
O          3.87895        0.12498       -0.24108
N          3.81929        2.18374        0.70650
H          2.79918        2.22818        0.67220
H          4.33731        2.95170        1.08662
C          5.97038        1.12328        0.32388
H          6.36225        2.02293        0.79106
H          6.37393        1.03574       -0.68190
H          6.29816        0.25271        0.88606
