 18
 #Generated by chemFileConvert.py
  C           -1.3097500     1.1801760    -0.0251700
  O           -0.7253000     2.1551480     0.4527130
  N           -0.6656210     0.0950550    -0.4919940
  H            0.3545830     0.0514480    -0.4593090
  H           -1.1836270    -0.6736000    -0.8707560
  C           -2.8167190     1.1559990    -0.1106060
  H           -3.2206290     1.2625410     0.8930820
  H           -3.2094280     0.2486340    -0.5619000
  H           -3.1431580     2.0165960    -0.6888930
  C            2.6085030     1.0603380     0.1237080
  O            2.0240810     0.0863170    -0.3560230
  N            1.9644150     2.1450810     0.5915550
  H            0.9443100     2.1895190     0.5572530
  H            2.4824390     2.9130420     0.9716750
  C            4.1155020     1.0846220     0.2089330
  H            4.5073730     1.9842720     0.6761170
  H            4.5190580     0.9970770    -0.7968470
  H            4.4432810     0.2140470     0.7711130
