 18
 #Generated by chemFileConvert.py
  C           -1.3097500     1.1801760    -0.0251700
  O           -0.7253000     2.1551480     0.4527130
  N           -0.6656210     0.0950550    -0.4919940
  H            0.3545830     0.0514480    -0.4593090
  H           -1.1836270    -0.6736000    -0.8707560
  C           -2.8167190     1.1559990    -0.1106060
  H           -3.2206290     1.2625410     0.8930820
  H           -3.2094280     0.2486340    -0.5619000
  H           -3.1431580     2.0165960    -0.6888930
  C            2.7938880     1.0641820     0.1352460
  O            2.2094670     0.0901610    -0.3444850
  N            2.1498010     2.1489250     0.6030930
  H            1.1296950     2.1933630     0.5687920
  H            2.6678250     2.9168860     0.9832140
  C            4.3008870     1.0884660     0.2204720
  H            4.6927590     1.9881160     0.6876560
  H            4.7044440     1.0009210    -0.7853090
  H            4.6286660     0.2178910     0.7826520
