 18
 #Generated by chemFileConvert.py
  C           -1.3097500     1.1801760    -0.0251700
  O           -0.7253000     2.1551480     0.4527130
  N           -0.6656210     0.0950550    -0.4919940
  H            0.3545830     0.0514480    -0.4593090
  H           -1.1836270    -0.6736000    -0.8707560
  C           -2.8167190     1.1559990    -0.1106060
  H           -3.2206290     1.2625410     0.8930820
  H           -3.2094280     0.2486340    -0.5619000
  H           -3.1431580     2.0165960    -0.6888930
  C            2.8867310     1.0661070     0.1410250
  O            2.3023090     0.0920870    -0.3387060
  N            2.2426430     2.1508500     0.6088710
  H            1.2225380     2.1952880     0.5745700
  H            2.7606670     2.9188120     0.9889920
  C            4.3937300     1.0903920     0.2262500
  H            4.7856010     1.9900410     0.6934340
  H            4.7972860     1.0028460    -0.7795300
  H            4.7215090     0.2198170     0.7884300
