 20
 #Generated by chemFileConvert.py
  C           -1.1136260     1.3270200     0.2751670
  O           -0.4670830     2.3493880     0.4615370
  O           -0.5780890     0.1369200     0.0496170
  H            0.4133200     0.2032570     0.0554870
  C           -2.6114250     1.2861900     0.2773610
  H           -3.0066490     2.2768850     0.4657900
  H           -2.9642560     0.9152590    -0.6820010
  H           -2.9531140     0.5917980     1.0412400
  N            4.1118110     1.0860130     0.1831720
  H            4.5050160     0.1706230     0.0114520
  C            5.0333380     2.1341290     0.3646250
  O            6.2304850     1.9158330     0.3117450
  C            4.3942720     3.4135910     0.6052320
  H            5.0138070     4.2805160     0.7567090
  C            3.0471880     3.4935820     0.6346130
  H            2.5243480     4.4220290     0.8099110
  N            2.2434570     2.4029000     0.4442070
  H            1.2194060     2.4728470     0.4679970
  C            2.7433900     1.1526770     0.2100350
  O            2.0313570     0.1631720     0.0365650
