 20
 #Generated by chemFileConvert.py
  C           -1.1136260     1.3270200     0.2751670
  O           -0.4670830     2.3493880     0.4615370
  O           -0.5780890     0.1369200     0.0496170
  H            0.4133200     0.2032570     0.0554870
  C           -2.6114250     1.2861900     0.2773610
  H           -3.0066490     2.2768850     0.4657900
  H           -2.9642560     0.9152590    -0.6820010
  H           -2.9531140     0.5917980     1.0412400
  N            4.1969730     1.0881620     0.1828500
  H            4.5901780     0.1727720     0.0111310
  C            5.1185010     2.1362780     0.3643030
  O            6.3156470     1.9179820     0.3114240
  C            4.4794350     3.4157400     0.6049110
  H            5.0989700     4.2826650     0.7563880
  C            3.1323510     3.4957300     0.6342920
  H            2.6095110     4.4241770     0.8095900
  N            2.3286200     2.4050480     0.4438860
  H            1.3045680     2.4749960     0.4676760
  C            2.8285530     1.1548260     0.2097140
  O            2.1165200     0.1653210     0.0362430
