20
022_AcOH-Uracil_1.60.txyz
C         -1.11363        1.32702        0.27517
O         -0.46708        2.34939        0.46154
O         -0.57809        0.13692        0.04962
H          0.41332        0.20326        0.05549
C         -2.61143        1.28619        0.27736
H         -3.00665        2.27689        0.46579
H         -2.96426        0.91526       -0.68200
H         -2.95311        0.59180        1.04124
N          5.21917        1.07350        0.17259
H          5.61238        0.15811        0.00087
C          6.14070        2.12161        0.35404
O          7.33784        1.90332        0.30116
C          5.50163        3.40107        0.59465
H          6.12117        4.26800        0.74613
C          4.15455        3.48107        0.62403
H          3.63171        4.40951        0.79933
N          3.35082        2.39038        0.43362
H          2.32676        2.46033        0.45741
C          3.85075        1.14016        0.19945
O          3.13872        0.15066        0.02598
