 20
 #Generated by chemFileConvert.py
  C           -1.1136260     1.3270200     0.2751670
  O           -0.4670830     2.3493880     0.4615370
  O           -0.5780890     0.1369200     0.0496170
  H            0.4133200     0.2032570     0.0554870
  C           -2.6114250     1.2861900     0.2773610
  H           -3.0066490     2.2768850     0.4657900
  H           -2.9642560     0.9152590    -0.6820010
  H           -2.9531140     0.5917980     1.0412400
  N            4.2823260     1.0903160     0.1825280
  H            4.6755310     0.1749250     0.0108090
  C            5.2038540     2.1384310     0.3639820
  O            6.4010000     1.9201350     0.3111020
  C            4.5647880     3.4178940     0.6045890
  H            5.1843220     4.2848190     0.7560660
  C            3.2177030     3.4978840     0.6339700
  H            2.6948630     4.4263310     0.8092680
  N            2.4139730     2.4072020     0.4435640
  H            1.3899210     2.4771500     0.4673540
  C            2.9139050     1.1569790     0.2093920
  O            2.2018730     0.1674740     0.0359220
