21
023_AcNH2-Uracil_1.30.txyz
C         -1.23273        1.21164       -0.14162
O         -0.57128        2.24202        0.02562
N         -0.67058        0.00389       -0.31428
H          0.34385       -0.09056       -0.30833
H         -1.24421       -0.80632       -0.44668
C         -2.73825        1.26676       -0.15589
H         -3.07797        1.64661        0.80450
H         -3.20212        0.30286       -0.34621
H         -3.04999        1.97549       -0.91860
N          4.72154        1.11825       -0.11580
H          5.21157        0.24230       -0.23373
C          5.52517        2.26110        0.03469
O          6.74073        2.16547        0.01950
C          4.75258        3.47641        0.19783
H          5.27434        4.40961        0.32087
C          3.40341        3.41474        0.19215
H          2.78301        4.29110        0.30983
N          2.71833        2.24246        0.03759
H          1.68554        2.23340        0.03675
C          3.34922        1.03799       -0.12467
O          2.75203       -0.02593       -0.26648
