 21
 #Generated by chemFileConvert.py
  C           -1.2327270     1.2116390    -0.1416240
  O           -0.5712770     2.2420160     0.0256170
  N           -0.6705810     0.0038890    -0.3142810
  H            0.3438470    -0.0905600    -0.3083270
  H           -1.2442140    -0.8063240    -0.4466830
  C           -2.7382450     1.2667580    -0.1558870
  H           -3.0779750     1.6466050     0.8045020
  H           -3.2021150     0.3028650    -0.3462110
  H           -3.0499870     1.9754900    -0.9185970
  N            4.2006530     1.1175110    -0.1194730
  H            4.6906820     0.2415530    -0.2374120
  C            5.0042790     2.2603550     0.0310080
  O            6.2198410     2.1647330     0.0158230
  C            4.2316870     3.4756720     0.1941520
  H            4.7534500     4.4088650     0.3171870
  C            2.8825260     3.4139960     0.1884750
  H            2.2621220     4.2903570     0.3061520
  N            2.1974440     2.2417150     0.0339100
  H            1.1646530     2.2326540     0.0330720
  C            2.8283340     1.0372450    -0.1283500
  O            2.2311450    -0.0266710    -0.2701580
