 21
 #Generated by chemFileConvert.py
  C           -1.2327270     1.2116390    -0.1416240
  O           -0.5712770     2.2420160     0.0256170
  N           -0.6705810     0.0038890    -0.3142810
  H            0.3438470    -0.0905600    -0.3083270
  H           -1.2442140    -0.8063240    -0.4466830
  C           -2.7382450     1.2667580    -0.1558870
  H           -3.0779750     1.6466050     0.8045020
  H           -3.2021150     0.3028650    -0.3462110
  H           -3.0499870     1.9754900    -0.9185970
  N            4.0271420     1.1148990    -0.1216580
  H            4.5171710     0.2389420    -0.2395970
  C            4.8307680     2.2577440     0.0288230
  O            6.0463300     2.1621220     0.0136390
  C            4.0581760     3.4730610     0.1919670
  H            4.5799390     4.4062540     0.3150020
  C            2.7090150     3.4113850     0.1862910
  H            2.0886110     4.2877460     0.3039670
  N            2.0239330     2.2391040     0.0317250
  H            0.9911430     2.2300430     0.0308870
  C            2.6548230     1.0346340    -0.1305350
  O            2.0576340    -0.0292820    -0.2723430
