 24
 #Generated by chemFileConvert.py
  C            0.7126450     1.1209960     0.0605410
  H            1.3578420     1.9863990     0.1277370
  C            1.2582360    -0.1592520     0.1242340
  H            2.3249540    -0.2871000     0.2467430
  C            0.4268850    -1.2745270     0.0426500
  H            0.8504450    -2.2684330     0.0947500
  C           -0.9495780    -1.1100740    -0.1003140
  H           -1.5944560    -1.9762740    -0.1637130
  C           -1.4955260     0.1710510    -0.1615460
  H           -2.5637830     0.2992210    -0.2737030
  C           -0.6638280     1.2866430    -0.0834010
  H           -1.0869010     2.2810000    -0.1328860
  C            1.7066230     1.1123950     2.9060640
  H            2.3514680     1.9785790     2.9698150
  C            2.2525760    -0.1687560     2.9675840
  H            3.3207830    -0.2969030     3.0803280
  C            1.4209260    -1.2843560     2.8889330
  H            1.8440080    -2.2787090     2.9385870
  C            0.0445250    -1.1187210     2.7442170
  H           -0.6005780    -1.9841310     2.6765840
  C           -0.5010350     0.1615120     2.6802510
  H           -1.5676630     0.2893410     2.5570720
  C            0.3302420     1.2767920     2.7623220
  H           -0.0932830     2.2706970     2.7099530
