24
024_Benzene-Benzene_pi-pi_1.60.txyz
C          0.71264        1.12100        0.06054
H          1.35784        1.98640        0.12774
C          1.25824       -0.15925        0.12423
H          2.32495       -0.28710        0.24674
C          0.42689       -1.27453        0.04265
H          0.85045       -2.26843        0.09475
C         -0.94958       -1.11007       -0.10031
H         -1.59446       -1.97627       -0.16371
C         -1.49553        0.17105       -0.16155
H         -2.56378        0.29922       -0.27370
C         -0.66383        1.28664       -0.08340
H         -1.08690        2.28100       -0.13289
C          2.67711        1.10329        5.68234
H          3.32195        1.96947        5.74609
C          3.22306       -0.17786        5.74386
H          4.29127       -0.30601        5.85660
C          2.39141       -1.29346        5.66521
H          2.81449       -2.28781        5.71486
C          1.01501       -1.12783        5.52049
H          0.36990       -1.99324        5.45286
C          0.46945        0.15241        5.45653
H         -0.59718        0.28024        5.33335
C          1.30072        1.26769        5.53860
H          0.87720        2.26159        5.48623
