 24
 #Generated by chemFileConvert.py
  C            0.7126450     1.1209960     0.0605410
  H            1.3578420     1.9863990     0.1277370
  C            1.2582360    -0.1592520     0.1242340
  H            2.3249540    -0.2871000     0.2467430
  C            0.4268850    -1.2745270     0.0426500
  H            0.8504450    -2.2684330     0.0947500
  C           -0.9495780    -1.1100740    -0.1003140
  H           -1.5944560    -1.9762740    -0.1637130
  C           -1.4955260     0.1710510    -0.1615460
  H           -2.5637830     0.2992210    -0.2737030
  C           -0.6638280     1.2866430    -0.0834010
  H           -1.0869010     2.2810000    -0.1328860
  C            2.0097530     1.1095510     3.7732340
  H            2.6545980     1.9757350     3.8369850
  C            2.5557060    -0.1716000     3.8347540
  H            3.6239130    -0.2997470     3.9474980
  C            1.7240570    -1.2872000     3.7561030
  H            2.1471380    -2.2815530     3.8057570
  C            0.3476550    -1.1215650     3.6113860
  H           -0.2974480    -1.9869760     3.5437540
  C           -0.1979050     0.1586670     3.5474210
  H           -1.2645330     0.2864970     3.4242420
  C            0.6333720     1.2739480     3.6294920
  H            0.2098470     2.2678530     3.5771230
