 24
 #Generated by chemFileConvert.py
  C            0.7126450     1.1209960     0.0605410
  H            1.3578420     1.9863990     0.1277370
  C            1.2582360    -0.1592520     0.1242340
  H            2.3249540    -0.2871000     0.2467430
  C            0.4268850    -1.2745270     0.0426500
  H            0.8504450    -2.2684330     0.0947500
  C           -0.9495780    -1.1100740    -0.1003140
  H           -1.5944560    -1.9762740    -0.1637130
  C           -1.4955260     0.1710510    -0.1615460
  H           -2.5637830     0.2992210    -0.2737030
  C           -0.6638280     1.2866430    -0.0834010
  H           -1.0869010     2.2810000    -0.1328860
  C            1.9494880     1.1101160     3.6008340
  H            2.5943330     1.9763000     3.6645840
  C            2.4954410    -0.1710350     3.6623530
  H            3.5636480    -0.2991820     3.7750980
  C            1.6637920    -1.2866350     3.5837030
  H            2.0868740    -2.2809870     3.6333570
  C            0.2873900    -1.1210000     3.4389860
  H           -0.3577120    -1.9864100     3.3713530
  C           -0.2581700     0.1592330     3.3750200
  H           -1.3247980     0.2870620     3.2518420
  C            0.5731070     1.2745140     3.4570910
  H            0.1495820     2.2684190     3.4047220
