 22
 #Generated by chemFileConvert.py
  N            1.5724810     0.2545490    -0.2564810
  C            0.9693600    -0.9031600     0.0445260
  H            1.6136390    -1.7721810     0.1023450
  C           -0.3981580    -1.0288190     0.2809600
  H           -0.8184250    -1.9917370     0.5335640
  C           -1.1958050     0.1065580     0.1953970
  H           -2.2606900     0.0495390     0.3734430
  C           -0.5871280     1.3174120    -0.1201050
  H           -1.1618120     2.2295000    -0.2004630
  C            0.7885470     1.3397060    -0.3322410
  H            1.2884320     2.2687940    -0.5785270
  N           -0.5231870    -1.5069210     3.7521710
  C           -1.4556650    -0.5462920     3.8260220
  H           -2.4584540    -0.8772460     4.0682150
  C           -1.1936620     0.8047770     3.6166430
  H           -1.9922190     1.5292820     3.6949140
  C            0.1057660     1.1940180     3.3063750
  H            0.3477500     2.2330170     3.1305030
  C            1.0853250     0.2111200     3.2230130
  H            2.1076260     0.4578660     2.9745760
  C            0.7228450    -1.1140180     3.4562060
  H            1.4667060    -1.8995720     3.3997580
