 22
 #Generated by chemFileConvert.py
  N            1.5724810     0.2545490    -0.2564810
  C            0.9693600    -0.9031600     0.0445260
  H            1.6136390    -1.7721810     0.1023450
  C           -0.3981580    -1.0288190     0.2809600
  H           -0.8184250    -1.9917370     0.5335640
  C           -1.1958050     0.1065580     0.1953970
  H           -2.2606900     0.0495390     0.3734430
  C           -0.5871280     1.3174120    -0.1201050
  H           -1.1618120     2.2295000    -0.2004630
  C            0.7885470     1.3397060    -0.3322410
  H            1.2884320     2.2687940    -0.5785270
  N           -0.5620070    -1.5398610     4.0910260
  C           -1.4944850    -0.5792310     4.1648770
  H           -2.4972740    -0.9101860     4.4070700
  C           -1.2324820     0.7718370     3.9554980
  H           -2.0310400     1.4963420     4.0337690
  C            0.0669450     1.1610780     3.6452300
  H            0.3089300     2.2000770     3.4693580
  C            1.0465050     0.1781800     3.5618680
  H            2.0688060     0.4249260     3.3134310
  C            0.6840250    -1.1469580     3.7950610
  H            1.4278860    -1.9325120     3.7386130
