 22
 #Generated by chemFileConvert.py
  N            1.5724810     0.2545490    -0.2564810
  C            0.9693600    -0.9031600     0.0445260
  H            1.6136390    -1.7721810     0.1023450
  C           -0.3981580    -1.0288190     0.2809600
  H           -0.8184250    -1.9917370     0.5335640
  C           -1.1958050     0.1065580     0.1953970
  H           -2.2606900     0.0495390     0.3734430
  C           -0.5871280     1.3174120    -0.1201050
  H           -1.1618120     2.2295000    -0.2004630
  C            0.7885470     1.3397060    -0.3322410
  H            1.2884320     2.2687940    -0.5785270
  N           -0.5426480    -1.5234340     3.9220460
  C           -1.4751260    -0.5628050     3.9958970
  H           -2.4779150    -0.8937600     4.2380900
  C           -1.2131230     0.7882630     3.7865180
  H           -2.0116810     1.5127690     3.8647890
  C            0.0863040     1.1775050     3.4762490
  H            0.3282890     2.2165030     3.3003780
  C            1.0658640     0.1946070     3.3928880
  H            2.0881650     0.4413520     3.1444510
  C            0.7033840    -1.1305310     3.6260810
  H            1.4472450    -1.9160860     3.5696320
