22
025_Pyridine-Pyridine_pi-pi_1.90.txyz
N          1.57248        0.25455       -0.25648
C          0.96936       -0.90316        0.04453
H          1.61364       -1.77218        0.10235
C         -0.39816       -1.02882        0.28096
H         -0.81842       -1.99174        0.53356
C         -1.19581        0.10656        0.19540
H         -2.26069        0.04954        0.37344
C         -0.58713        1.31741       -0.12011
H         -1.16181        2.22950       -0.20046
C          0.78855        1.33971       -0.33224
H          1.28843        2.26879       -0.57853
N         -0.86044       -1.79309        6.69599
C         -1.79292       -0.83246        6.76984
H         -2.79571       -1.16342        7.01203
C         -1.53091        0.51860        6.56046
H         -2.32947        1.24311        6.63873
C         -0.23149        0.90785        6.25019
H          0.01050        1.94684        6.07432
C          0.74807       -0.07505        6.16683
H          1.77037        0.17169        5.91839
C          0.38559       -1.40019        6.40002
H          1.12945       -2.18574        6.34357
