 22
 #Generated by chemFileConvert.py
  N            1.5724810     0.2545490    -0.2564810
  C            0.9693600    -0.9031600     0.0445260
  H            1.6136390    -1.7721810     0.1023450
  C           -0.3981580    -1.0288190     0.2809600
  H           -0.8184250    -1.9917370     0.5335640
  C           -1.1958050     0.1065580     0.1953970
  H           -2.2606900     0.0495390     0.3734430
  C           -0.5871280     1.3174120    -0.1201050
  H           -1.1618120     2.2295000    -0.2004630
  C            0.7885470     1.3397060    -0.3322410
  H            1.2884320     2.2687940    -0.5785270
  N           -0.4074760    -1.4087380     2.7421570
  C           -1.3399550    -0.4481090     2.8160090
  H           -2.3427440    -0.7790640     3.0582020
  C           -1.0779520     0.9029600     2.6066290
  H           -1.8765090     1.6274650     2.6849000
  C            0.2214760     1.2922010     2.2963610
  H            0.4634600     2.3311990     2.1204900
  C            1.2010350     0.3093030     2.2129990
  H            2.2233360     0.5560480     1.9645620
  C            0.8385550    -1.0158350     2.4461920
  H            1.5824160    -1.8013900     2.3897440
