24
026_Uracil-Uracil_pi-pi_1.90.txyz
N          1.37690        0.83975        0.73462
H          1.05181        1.38622        1.52336
C          1.30898        1.45753       -0.52065
O          0.92056        2.61108       -0.62598
N          2.01142       -1.21321       -0.09807
H          1.72729        0.99084       -2.61200
C          2.02574       -0.69717       -1.36440
H          2.29752       -1.39106       -2.14565
C          1.71451        0.59194       -1.61249
H          2.12945       -2.20152        0.05683
C          1.64594       -0.48521        1.01872
O          1.56112       -0.97182        2.12981
N         -3.89338       -1.27421        0.73462
H         -3.56829       -1.82068        1.52336
C         -3.82546       -1.89199       -0.52065
O         -3.43704       -3.04554       -0.62598
N         -4.52790        0.77875       -0.09807
H         -4.24376       -1.42530       -2.61200
C         -4.54221        0.26271       -1.36440
H         -4.81400        0.95660       -2.14565
C         -4.23099       -1.02640       -1.61249
H         -4.64593        1.76706        0.05683
C         -4.16242        0.05075        1.01872
O         -4.07759        0.53736        2.12981
