 24
 #Generated by chemFileConvert.py
  N            1.3769010     0.8397470     0.7346250
  H            1.0518120     1.3862240     1.5233560
  C            1.3089830     1.4575300    -0.5206550
  O            0.9205610     2.6110780    -0.6259770
  N            2.0114230    -1.2132080    -0.0980720
  H            1.7272860     0.9908430    -2.6119960
  C            2.0257370    -0.6971710    -1.3643970
  H            2.2975170    -1.3910600    -2.1456450
  C            1.7145120     0.5919380    -1.6124870
  H            2.1294540    -2.2015210     0.0568290
  C            1.6459450    -0.4852060     1.0187180
  O            1.5611160    -0.9718160     2.1298090
  N           -1.5140410    -0.8634240     0.7346250
  H           -1.1889520    -1.4099000     1.5233560
  C           -1.4461230    -1.4812060    -0.5206550
  O           -1.0577010    -2.6347540    -0.6259770
  N           -2.1485630     1.1895320    -0.0980720
  H           -1.8644260    -1.0145190    -2.6119960
  C           -2.1628770     0.6734950    -1.3643970
  H           -2.4346570     1.3673840    -2.1456450
  C           -1.8516520    -0.6156140    -1.6124870
  H           -2.2665940     2.1778440     0.0568290
  C           -1.7830850     0.4615300     1.0187180
  O           -1.6982560     0.9481400     2.1298090
