 24
 #Generated by chemFileConvert.py
  N            1.3769010     0.8397470     0.7346250
  H            1.0518120     1.3862240     1.5233560
  C            1.3089830     1.4575300    -0.5206550
  O            0.9205610     2.6110780    -0.6259770
  N            2.0114230    -1.2132080    -0.0980720
  H            1.7272860     0.9908430    -2.6119960
  C            2.0257370    -0.6971710    -1.3643970
  H            2.2975170    -1.3910600    -2.1456450
  C            1.7145120     0.5919380    -1.6124870
  H            2.1294540    -2.2015210     0.0568290
  C            1.6459450    -0.4852060     1.0187180
  O            1.5611160    -0.9718160     2.1298090
  N           -0.8244050    -0.7443620     0.7346250
  H           -0.4993160    -1.2908380     1.5233560
  C           -0.7564870    -1.3621440    -0.5206550
  O           -0.3680650    -2.5156920    -0.6259770
  N           -1.4589270     1.3085940    -0.0980720
  H           -1.1747900    -0.8954570    -2.6119960
  C           -1.4732410     0.7925570    -1.3643970
  H           -1.7450210     1.4864450    -2.1456450
  C           -1.1620160    -0.4965520    -1.6124870
  H           -1.5769580     2.2969060     0.0568290
  C           -1.0934490     0.5805910     1.0187180
  O           -1.0086200     1.0672020     2.1298090
