 24
 #Generated by chemFileConvert.py
  N            1.3769010     0.8397470     0.7346250
  H            1.0518120     1.3862240     1.5233560
  C            1.3089830     1.4575300    -0.5206550
  O            0.9205610     2.6110780    -0.6259770
  N            2.0114230    -1.2132080    -0.0980720
  H            1.7272860     0.9908430    -2.6119960
  C            2.0257370    -0.6971710    -1.3643970
  H            2.2975170    -1.3910600    -2.1456450
  C            1.7145120     0.5919380    -1.6124870
  H            2.1294540    -2.2015210     0.0568290
  C            1.6459450    -0.4852060     1.0187180
  O            1.5611160    -0.9718160     2.1298090
  N           -0.5440790    -0.6959650     0.7346250
  H           -0.2189910    -1.2424420     1.5233560
  C           -0.4761610    -1.3137480    -0.5206550
  O           -0.0877400    -2.4672960    -0.6259770
  N           -1.1786010     1.3569900    -0.0980720
  H           -0.8944640    -0.8470610    -2.6119960
  C           -1.1929150     0.8409530    -1.3643970
  H           -1.4646950     1.5348420    -2.1456450
  C           -0.8816910    -0.4481560    -1.6124870
  H           -1.2966330     2.3453030     0.0568290
  C           -0.8131230     0.6289880     1.0187180
  O           -0.7282940     1.1155980     2.1298090
