 23
 #Generated by chemFileConvert.py
  C            0.8187470     0.8641720     0.1882860
  H            1.4661140     1.7166680     0.3447210
  C            1.3689970    -0.3905240    -0.0666980
  H            2.4430360    -0.5118620    -0.1105740
  C            0.5343790    -1.4884930    -0.2718880
  H            0.9608480    -2.4615640    -0.4755070
  C           -0.8491160    -1.3305070    -0.2198960
  H           -1.4970690    -2.1818600    -0.3795530
  C           -1.3994850    -0.0760300     0.0404340
  H           -2.4726870     0.0449080     0.0933820
  C           -0.5652920     1.0214030     0.2422790
  H           -0.9925570     1.9936610     0.4462580
  N           -2.3728530     0.1496200     3.4273660
  C           -1.7579670     1.3072880     3.7074300
  H           -2.4055710     2.1604600     3.8699420
  C           -0.3757520     1.4481360     3.7976010
  H            0.0560970     2.4117860     4.0288170
  C            0.4251990     0.3311570     3.5833870
  H            1.5027690     0.4015410     3.6382220
  C           -0.1953530    -0.8774990     3.2897280
  H            0.3804220    -1.7731200     3.1056530
  C           -1.5858670    -0.9155360     3.2242780
  H           -2.0947200    -1.8439900     2.9954360
