 23
 #Generated by chemFileConvert.py
  C            0.8187470     0.8641720     0.1882860
  H            1.4661140     1.7166680     0.3447210
  C            1.3689970    -0.3905240    -0.0666980
  H            2.4430360    -0.5118620    -0.1105740
  C            0.5343790    -1.4884930    -0.2718880
  H            0.9608480    -2.4615640    -0.4755070
  C           -0.8491160    -1.3305070    -0.2198960
  H           -1.4970690    -2.1818600    -0.3795530
  C           -1.3994850    -0.0760300     0.0404340
  H           -2.4726870     0.0449080     0.0933820
  C           -0.5652920     1.0214030     0.2422790
  H           -0.9925570     1.9936610     0.4462580
  N           -2.0817000     0.0071050     2.3682840
  C           -1.4668140     1.1647730     2.6483480
  H           -2.1144180     2.0179440     2.8108600
  C           -0.0845990     1.3056200     2.7385190
  H            0.3472500     2.2692710     2.9697350
  C            0.7163520     0.1886410     2.5243050
  H            1.7939220     0.2590250     2.5791390
  C            0.0958000    -1.0200140     2.2306450
  H            0.6715750    -1.9156360     2.0465700
  C           -1.2947140    -1.0580520     2.1651960
  H           -1.8035670    -1.9865050     1.9363530
