 23
 #Generated by chemFileConvert.py
  C            0.8187470     0.8641720     0.1882860
  H            1.4661140     1.7166680     0.3447210
  C            1.3689970    -0.3905240    -0.0666980
  H            2.4430360    -0.5118620    -0.1105740
  C            0.5343790    -1.4884930    -0.2718880
  H            0.9608480    -2.4615640    -0.4755070
  C           -0.8491160    -1.3305070    -0.2198960
  H           -1.4970690    -2.1818600    -0.3795530
  C           -1.3994850    -0.0760300     0.0404340
  H           -2.4726870     0.0449080     0.0933820
  C           -0.5652920     1.0214030     0.2422790
  H           -0.9925570     1.9936610     0.4462580
  N           -2.4205150     0.1729500     3.6007400
  C           -1.8056290     1.3306180     3.8808040
  H           -2.4532330     2.1837900     4.0433160
  C           -0.4234140     1.4714660     3.9709750
  H            0.0084340     2.4351160     4.2021910
  C            0.3775370     0.3544870     3.7567610
  H            1.4551060     0.4248710     3.8115960
  C           -0.2430150    -0.8541680     3.4631020
  H            0.3327600    -1.7497900     3.2790270
  C           -1.6335290    -0.8922060     3.3976520
  H           -2.1423820    -1.8206600     3.1688100
