24
028_Benzene-Uracil_pi-pi_1.90.txyz
C          0.82577        1.23653       -0.04025
H          1.52101        2.06312       -0.08247
C          1.30016       -0.06294        0.12726
H          2.36366       -0.24226        0.20767
C          0.40352       -1.12855        0.19825
H          0.77375       -2.13743        0.32412
C         -0.96781       -0.89519        0.10314
H         -1.66521       -1.71998        0.16043
C         -1.44351        0.40448       -0.06244
H         -2.50751        0.58550       -0.12415
C         -0.54575        1.46877       -0.13625
H         -0.91422        2.47742       -0.26786
N         -0.16952        0.37542        6.00025
H         -0.54282        1.27718        5.73735
C          1.22263        0.30243        6.13226
O          1.91354        1.29686        5.98742
C          1.70153       -1.03164        6.45037
H          2.75858       -1.18386        6.58449
C          0.82182       -2.04603        6.57659
H          1.12775       -3.05445        6.81311
N         -0.52342       -1.86099        6.40649
H         -1.17217       -2.62355        6.50536
C         -1.09787       -0.63619        6.10708
O         -2.29566       -0.48537        5.96497
