 24
 #Generated by chemFileConvert.py
  C            0.8257690     1.2365250    -0.0402500
  H            1.5210130     2.0631250    -0.0824710
  C            1.3001600    -0.0629410     0.1272560
  H            2.3636580    -0.2422610     0.2076740
  C            0.4035230    -1.1285520     0.1982450
  H            0.7737530    -2.1374270     0.3241210
  C           -0.9678090    -0.8951900     0.1031400
  H           -1.6652090    -1.7199830     0.1604270
  C           -1.4435080     0.4044830    -0.0624410
  H           -2.5075110     0.5855010    -0.1241500
  C           -0.5457550     1.4687690    -0.1362470
  H           -0.9142220     2.4774220    -0.2678550
  N           -0.2875230     0.7071220     2.8848990
  H           -0.6608300     1.6088840     2.6220060
  C            1.1046240     0.6341350     3.0169120
  O            1.7955340     1.6285590     2.8720780
  C            1.5835240    -0.6999420     3.3350230
  H            2.6405760    -0.8521580     3.4691440
  C            0.7038150    -1.7143230     3.4612390
  H            1.0097420    -2.7227440     3.6977630
  N           -0.6414310    -1.5292920     3.2911470
  H           -1.2901790    -2.2918500     3.3900160
  C           -1.2158790    -0.3044900     2.9917320
  O           -2.4136680    -0.1536670     2.8496200
