 24
 #Generated by chemFileConvert.py
  C            0.8257690     1.2365250    -0.0402500
  H            1.5210130     2.0631250    -0.0824710
  C            1.3001600    -0.0629410     0.1272560
  H            2.3636580    -0.2422610     0.2076740
  C            0.4035230    -1.1285520     0.1982450
  H            0.7737530    -2.1374270     0.3241210
  C           -0.9678090    -0.8951900     0.1031400
  H           -1.6652090    -1.7199830     0.1604270
  C           -1.4435080     0.4044830    -0.0624410
  H           -2.5075110     0.5855010    -0.1241500
  C           -0.5457550     1.4687690    -0.1362470
  H           -0.9142220     2.4774220    -0.2678550
  N           -0.3111140     0.7734350     2.2620870
  H           -0.6844220     1.6751960     1.9991940
  C            1.0810320     0.7004480     2.3941000
  O            1.7719430     1.6948720     2.2492660
  C            1.5599320    -0.6336300     2.7122110
  H            2.6169840    -0.7858460     2.8463320
  C            0.6802230    -1.6480110     2.8384270
  H            0.9861510    -2.6564320     3.0749510
  N           -0.6650230    -1.4629790     2.6683350
  H           -1.3137710    -2.2255380     2.7672040
  C           -1.2394710    -0.2381780     2.3689200
  O           -2.4372590    -0.0873550     2.2268080
