 24
 #Generated by chemFileConvert.py
  C            0.8257690     1.2365250    -0.0402500
  H            1.5210130     2.0631250    -0.0824710
  C            1.3001600    -0.0629410     0.1272560
  H            2.3636580    -0.2422610     0.2076740
  C            0.4035230    -1.1285520     0.1982450
  H            0.7737530    -2.1374270     0.3241210
  C           -0.9678090    -0.8951900     0.1031400
  H           -1.6652090    -1.7199830     0.1604270
  C           -1.4435080     0.4044830    -0.0624410
  H           -2.5075110     0.5855010    -0.1241500
  C           -0.5457550     1.4687690    -0.1362470
  H           -0.9142220     2.4774220    -0.2678550
  N           -0.2641080     0.6413070     3.5030380
  H           -0.6374150     1.5430690     3.2401450
  C            1.1280390     0.5683210     3.6350510
  O            1.8189490     1.5627440     3.4902170
  C            1.6069390    -0.7657570     3.9531610
  H            2.6639910    -0.9179730     4.0872820
  C            0.7272290    -1.7801380     4.0793780
  H            1.0331570    -2.7885590     4.3159020
  N           -0.6180160    -1.5951060     3.9092850
  H           -1.2667640    -2.3576650     4.0081550
  C           -1.1924650    -0.3703050     3.6098710
  O           -2.3902530    -0.2194820     3.4677590
