 23
 #Generated by chemFileConvert.py
  N            1.2107550     0.0286760     0.3297110
  C            0.6119350    -1.1584490     0.1534520
  H            1.2514780    -2.0295230     0.2192930
  C           -0.7513140    -1.3086500    -0.0888340
  H           -1.1704160    -2.2968690    -0.2133830
  C           -1.5478680    -0.1699400    -0.1564670
  H           -2.6110130    -0.2459550    -0.3387560
  C           -0.9436220     1.0706360     0.0198230
  H           -1.5188140     1.9845000    -0.0116440
  C            0.4277190     1.1161090     0.2573490
  H            0.9246950     2.0680520     0.3975480
  N           -0.6842230    -0.2673730     3.6219800
  H           -1.5791120    -0.6992360     3.4373770
  C           -0.6839680     1.1304370     3.7149910
  O           -1.7238510     1.7586370     3.6001410
  C            0.6355270     1.6895180     3.9425540
  H            0.7368430     2.7567400     4.0384220
  C            1.7054000     0.8708260     4.0140740
  H            2.7092790     1.2394910     4.1625010
  N            1.5873390    -0.4864670     3.9015200
  H            2.4007750    -1.0786550     3.8933520
  C            0.3868920    -1.1337000     3.6751380
  O            0.2947550    -2.3391180     3.5415590
