 23
 #Generated by chemFileConvert.py
  N            1.2107550     0.0286760     0.3297110
  C            0.6119350    -1.1584490     0.1534520
  H            1.2514780    -2.0295230     0.2192930
  C           -0.7513140    -1.3086500    -0.0888340
  H           -1.1704160    -2.2968690    -0.2133830
  C           -1.5478680    -0.1699400    -0.1564670
  H           -2.6110130    -0.2459550    -0.3387560
  C           -0.9436220     1.0706360     0.0198230
  H           -1.5188140     1.9845000    -0.0116440
  C            0.4277190     1.1161090     0.2573490
  H            0.9246950     2.0680520     0.3975480
  N           -0.7749720    -0.3193450     2.6047210
  H           -1.6698610    -0.7512080     2.4201180
  C           -0.7747170     1.0784650     2.6977320
  O           -1.8146000     1.7066650     2.5828820
  C            0.5447780     1.6375470     2.9252950
  H            0.6460940     2.7047690     3.0211630
  C            1.6146510     0.8188540     2.9968150
  H            2.6185300     1.1875190     3.1452420
  N            1.4965900    -0.5384390     2.8842610
  H            2.3100260    -1.1306260     2.8760930
  C            0.2961430    -1.1856710     2.6578790
  O            0.2040060    -2.3910900     2.5243000
