 18
 #Generated by chemFileConvert.py
  C            0.8355170     1.1151670     0.0214010
  H            1.4843240     1.9806090     0.0195340
  C            1.3832750    -0.1661470     0.0237650
  H            2.4571490    -0.2952050     0.0227710
  C            0.5475550    -1.2813160     0.0216860
  H            0.9729360    -2.2758050     0.0197790
  C           -0.8355230    -1.1151620     0.0213990
  H           -1.4843340    -1.9806060     0.0195300
  C           -1.3832840     0.1661540     0.0237580
  H           -2.4571560     0.2952090     0.0227570
  C           -0.5475660     1.2813230     0.0216800
  H           -0.9729430     2.2758050     0.0197690
  C            0.6557780    -0.1167900     2.3995590
  H            1.0472390    -1.1239090     2.3950910
  H            1.3708520     0.6932740     2.3950580
  C           -0.6557780     0.1167930     2.3995680
  H           -1.3708500    -0.6932720     2.3950720
  H           -1.0472410     1.1239120     2.3951100
