18
030_Benzene-Ethene_1.90.txyz
C          0.83552        1.11517        0.02140
H          1.48432        1.98061        0.01953
C          1.38328       -0.16615        0.02377
H          2.45715       -0.29520        0.02277
C          0.54756       -1.28132        0.02169
H          0.97294       -2.27581        0.01978
C         -0.83552       -1.11516        0.02140
H         -1.48433       -1.98061        0.01953
C         -1.38328        0.16615        0.02376
H         -2.45716        0.29521        0.02276
C         -0.54757        1.28132        0.02168
H         -0.97294        2.27581        0.01977
C          0.65579       -0.11679        6.64551
H          1.04725       -1.12391        6.64104
H          1.37086        0.69327        6.64101
C         -0.65577        0.11679        6.64552
H         -1.37084       -0.69327        6.64102
H         -1.04723        1.12391        6.64106
