18
030_Benzene-Ethene_1.30.txyz
C          0.83552        1.11517        0.02140
H          1.48432        1.98061        0.01953
C          1.38328       -0.16615        0.02377
H          2.45715       -0.29520        0.02277
C          0.54756       -1.28132        0.02169
H          0.97294       -2.27581        0.01978
C         -0.83552       -1.11516        0.02140
H         -1.48433       -1.98061        0.01953
C         -1.38328        0.16615        0.02376
H         -2.45716        0.29521        0.02276
C         -0.54757        1.28132        0.02168
H         -0.97294        2.27581        0.01977
C          0.65578       -0.11679        4.51854
H          1.04724       -1.12391        4.51408
H          1.37086        0.69327        4.51404
C         -0.65577        0.11679        4.51855
H         -1.37085       -0.69327        4.51406
H         -1.04724        1.12391        4.51409
