 18
 #Generated by chemFileConvert.py
  N           -0.0508740    -0.9800810     0.0339620
  H           -0.0532220    -1.9906940     0.0498220
  C           -1.3088130    -0.3618760     0.0040260
  O           -2.3272200    -1.0325550    -0.0058290
  C           -1.2368180     1.0880480    -0.0122240
  H           -2.1527390     1.6514600    -0.0547740
  C           -0.0351940     1.6978360     0.0337050
  H            0.0703660     2.7724760     0.0318820
  N            1.1345290     0.9902830     0.0918450
  H            2.0237200     1.4567720     0.1556930
  C            1.1931860    -0.3918330     0.1157750
  O            2.2363980    -1.0111880     0.1941860
  C            0.7224350     0.0205070     3.2648820
  H            1.2395530    -0.8504810     2.8876560
  H            1.3280460     0.8075010     3.6921970
  C           -0.6063410     0.1210980     3.2156350
  H           -1.2183440    -0.6663820     2.7987350
  H           -1.1181660     0.9921670     3.5996350
