 17
 #Generated by chemFileConvert.py
  N            1.3813820    -0.0002330     0.1314640
  C            0.6793510    -1.1402390     0.0920800
  H            1.2587200    -2.0549620     0.1258840
  C           -0.7097220    -1.1931140     0.0066640
  H           -1.2140880    -2.1485620    -0.0253090
  C           -1.4216140     0.0001330    -0.0408170
  H           -2.5006960     0.0002580    -0.1091700
  C           -0.7094010     1.1931750     0.0065220
  H           -1.2135120     2.1487480    -0.0255280
  C            0.6796520     1.1399560     0.0918930
  H            1.2592610     2.0545110     0.1255020
  C            0.0177120     0.6664300     3.2769670
  H            0.9281860     1.2259160     3.1178520
  H           -0.8918360     1.2288340     3.4339280
  C            0.0180450    -0.6662570     3.2770990
  H            0.9287800    -1.2253400     3.1180890
  H           -0.8912430    -1.2290820     3.4341890
