17
033_Pyridine-Ethene_1.90.txyz
N          1.38138       -0.00023        0.13146
C          0.67935       -1.14024        0.09208
H          1.25872       -2.05496        0.12588
C         -0.70972       -1.19311        0.00666
H         -1.21409       -2.14856       -0.02531
C         -1.42161        0.00013       -0.04082
H         -2.50070        0.00026       -0.10917
C         -0.70940        1.19318        0.00652
H         -1.21351        2.14875       -0.02553
C          0.67965        1.13996        0.09189
H          1.25926        2.05451        0.12550
C          0.04517        0.66656        6.32796
H          0.95565        1.22605        6.16885
H         -0.86437        1.22897        6.48492
C          0.04551       -0.66612        6.32809
H          0.95624       -1.22521        6.16908
H         -0.86378       -1.22895        6.48518
