 17
 #Generated by chemFileConvert.py
  N            1.3813820    -0.0002330     0.1314640
  C            0.6793510    -1.1402390     0.0920800
  H            1.2587200    -2.0549620     0.1258840
  C           -0.7097220    -1.1931140     0.0066640
  H           -1.2140880    -2.1485620    -0.0253090
  C           -1.4216140     0.0001330    -0.0408170
  H           -2.5006960     0.0002580    -0.1091700
  C           -0.7094010     1.1931750     0.0065220
  H           -1.2135120     2.1487480    -0.0255280
  C            0.6796520     1.1399560     0.0918930
  H            1.2592610     2.0545110     0.1255020
  C            0.0220390     0.6664510     3.7577860
  H            0.9325130     1.2259370     3.5986710
  H           -0.8875080     1.2288550     3.9147460
  C            0.0223720    -0.6662360     3.7579180
  H            0.9331070    -1.2253190     3.5989080
  H           -0.8869160    -1.2290610     3.9150070
