 17
 #Generated by chemFileConvert.py
  N            1.3813820    -0.0002330     0.1314640
  C            0.6793510    -1.1402390     0.0920800
  H            1.2587200    -2.0549620     0.1258840
  C           -0.7097220    -1.1931140     0.0066640
  H           -1.2140880    -2.1485620    -0.0253090
  C           -1.4216140     0.0001330    -0.0408170
  H           -2.5006960     0.0002580    -0.1091700
  C           -0.7094010     1.1931750     0.0065220
  H           -1.2135120     2.1487480    -0.0255280
  C            0.6796520     1.1399560     0.0918930
  H            1.2592610     2.0545110     0.1255020
  C            0.0162690     0.6664230     3.1166000
  H            0.9267430     1.2259090     2.9574850
  H           -0.8932790     1.2288270     3.2735600
  C            0.0166010    -0.6662640     3.1167320
  H            0.9273370    -1.2253470     2.9577220
  H           -0.8926870    -1.2290890     3.2738210
