 17
 #Generated by chemFileConvert.py
  N            1.3813820    -0.0002330     0.1314640
  C            0.6793510    -1.1402390     0.0920800
  H            1.2587200    -2.0549620     0.1258840
  C           -0.7097220    -1.1931140     0.0066640
  H           -1.2140880    -2.1485620    -0.0253090
  C           -1.4216140     0.0001330    -0.0408170
  H           -2.5006960     0.0002580    -0.1091700
  C           -0.7094010     1.1931750     0.0065220
  H           -1.2135120     2.1487480    -0.0255280
  C            0.6796520     1.1399560     0.0918930
  H            1.2592610     2.0545110     0.1255020
  C            0.0191540     0.6664370     3.4371830
  H            0.9296280     1.2259230     3.2780680
  H           -0.8903940     1.2288410     3.5941430
  C            0.0194860    -0.6662500     3.4373150
  H            0.9302220    -1.2253330     3.2783040
  H           -0.8898020    -1.2290750     3.5944040
