 34
 #Generated by chemFileConvert.py
  C           -2.5333090    -0.2948790     0.7131490
  H           -2.5636270    -0.9770820    -0.1364230
  H           -2.5669780    -0.8958760     1.6217320
  H           -3.4344260     0.3159570     0.6841040
  C           -1.2718850     0.5576550     0.6743550
  H           -1.2710260     1.2565660     1.5143190
  H           -1.2666330     1.1678960    -0.2318270
  C           -0.0001350    -0.2784180     0.7196030
  H           -0.0001590    -0.8872300     1.6286370
  H           -0.0003650    -0.9807140    -0.1194040
  C            1.2718950     0.5573820     0.6740610
  H            1.2709720     1.2566330     1.5137050
  H            1.2666360     1.1671830    -0.2323870
  C            2.5334040    -0.2949420     0.7132800
  H            2.5639190    -0.9777740    -0.1357780
  H            3.4343100     0.3162540     0.6835990
  H            2.5675580    -0.8952090     1.6223290
  C            2.5335560     0.2887730     4.8198280
  H            2.5681410     0.8885790     3.9105030
  H            2.5640600     0.9719790     5.6685730
  H            3.4342370    -0.3227250     4.8500370
  C            1.2717300    -0.5631150     4.8591320
  H            1.2662860    -1.1728420     5.7656290
  H            1.2706000    -1.2624680     4.0195510
  C           -0.0000450     0.2729840     4.8135160
  H           -0.0002000     0.9752940     5.6525000
  H            0.0000320     0.8817610     3.9044460
  C           -1.2718060    -0.5631580     4.8587870
  H           -1.2664230    -1.1732670     5.7650380
  H           -1.2706990    -1.2621800     4.0189240
  C           -2.5335250     0.2888890     4.8198100
  H           -2.5677180     0.8894220     3.9109330
  H           -3.4343270    -0.3224100     4.8493230
  H           -2.5640640     0.9714750     5.6690710
