 34
 #Generated by chemFileConvert.py
  C           -2.5333090    -0.2948790     0.7131490
  H           -2.5636270    -0.9770820    -0.1364230
  H           -2.5669780    -0.8958760     1.6217320
  H           -3.4344260     0.3159570     0.6841040
  C           -1.2718850     0.5576550     0.6743550
  H           -1.2710260     1.2565660     1.5143190
  H           -1.2666330     1.1678960    -0.2318270
  C           -0.0001350    -0.2784180     0.7196030
  H           -0.0001590    -0.8872300     1.6286370
  H           -0.0003650    -0.9807140    -0.1194040
  C            1.2718950     0.5573820     0.6740610
  H            1.2709720     1.2566330     1.5137050
  H            1.2666360     1.1671830    -0.2323870
  C            2.5334040    -0.2949420     0.7132800
  H            2.5639190    -0.9777740    -0.1357780
  H            3.4343100     0.3162540     0.6835990
  H            2.5675580    -0.8952090     1.6223290
  C            2.5335580     0.2976400     4.3845700
  H            2.5681420     0.8974460     3.4752440
  H            2.5640610     0.9808460     5.2333150
  H            3.4342380    -0.3138580     4.4147790
  C            1.2717320    -0.5542480     4.4238740
  H            1.2662880    -1.1639750     5.3303710
  H            1.2706010    -1.2536010     3.5842930
  C           -0.0000430     0.2818520     4.3782580
  H           -0.0001980     0.9841620     5.2172420
  H            0.0000330     0.8906280     3.4691880
  C           -1.2718040    -0.5542900     4.4235290
  H           -1.2664220    -1.1644000     5.3297790
  H           -1.2706980    -1.2533130     3.5836660
  C           -2.5335240     0.2977560     4.3845520
  H           -2.5677170     0.8982900     3.4756750
  H           -3.4343260    -0.3135420     4.4140650
  H           -2.5640630     0.9803420     5.2338130
