 34
 #Generated by chemFileConvert.py
  C           -2.5333090    -0.2948790     0.7131490
  H           -2.5636270    -0.9770820    -0.1364230
  H           -2.5669780    -0.8958760     1.6217320
  H           -3.4344260     0.3159570     0.6841040
  C           -1.2718850     0.5576550     0.6743550
  H           -1.2710260     1.2565660     1.5143190
  H           -1.2666330     1.1678960    -0.2318270
  C           -0.0001350    -0.2784180     0.7196030
  H           -0.0001590    -0.8872300     1.6286370
  H           -0.0003650    -0.9807140    -0.1194040
  C            1.2718950     0.5573820     0.6740610
  H            1.2709720     1.2566330     1.5137050
  H            1.2666360     1.1671830    -0.2323870
  C            2.5334040    -0.2949420     0.7132800
  H            2.5639190    -0.9777740    -0.1357780
  H            3.4343100     0.3162540     0.6835990
  H            2.5675580    -0.8952090     1.6223290
  C            2.5335600     0.3143480     3.5644120
  H            2.5681450     0.9141550     2.6550860
  H            2.5640640     0.9975550     4.4131570
  H            3.4342410    -0.2971490     3.5946210
  C            1.2717340    -0.5375390     3.6037160
  H            1.2662900    -1.1472670     4.5102130
  H            1.2706040    -1.2368930     2.7641350
  C           -0.0000410     0.2985600     3.5581000
  H           -0.0001960     1.0008700     4.3970840
  H            0.0000360     0.9073360     2.6490300
  C           -1.2718020    -0.5375820     3.6033710
  H           -1.2664190    -1.1476920     4.5096210
  H           -1.2706950    -1.2366050     2.7635080
  C           -2.5335210     0.3144640     3.5643940
  H           -2.5677140     0.9149980     2.6555170
  H           -3.4343230    -0.2968340     3.5939070
  H           -2.5640600     0.9970500     4.4136550
