 34
 #Generated by chemFileConvert.py
  C           -2.5303830    -0.4175750     0.6813060
  H           -2.5598860    -0.9827900    -0.2501560
  H           -2.5540360    -1.1338650     1.5026580
  H           -3.4362140     0.1841440     0.7367710
  C           -1.2761570     0.4436350     0.7500250
  H           -1.2780840     1.0252180     1.6750850
  H           -1.2803390     1.1685560    -0.0671580
  C            0.0022050    -0.3807160     0.6789930
  H            0.0078290    -1.1114130     1.4938310
  H            0.0062490    -0.9605230    -0.2488200
  C            1.2683330     0.4623960     0.7493690
  H            1.2620200     1.0442500     1.6742460
  H            1.2616350     1.1870570    -0.0680350
  C            2.5349660    -0.3804250     0.6806860
  H            2.5724400    -0.9457170    -0.2504520
  H            3.4319810     0.2344150     0.7355780
  H            2.5692080    -1.0958100     1.5024560
  C           -0.0005370     0.0692240     5.4261120
  C            0.0005340    -0.0709070     6.9458450
  H           -0.8865020     0.3931690     7.3792150
  H            0.0097860    -1.1216870     7.2388550
  H            0.8791950     0.4087570     7.3794880
  C           -1.2399930    -0.6124280     4.8522140
  H           -1.2632920    -0.5234710     3.7653840
  H           -1.2520780    -1.6737040     5.1052270
  H           -2.1509360    -0.1601370     5.2472990
  C            1.2520680    -0.5883170     4.8526420
  H            1.2733950    -0.5000310     3.7656710
  H            1.2851980    -1.6488780     5.1067340
  H            2.1538800    -0.1176740     5.2470630
  C           -0.0147850     1.5490160     5.0514910
  H            0.8629810     2.0596030     5.4504460
  H           -0.0153090     1.6754710     3.9678390
  H           -0.9028910     2.0423500     5.4492790
