34
035_Neopentane-Pentane_1.90.txyz
C         -2.53038       -0.41757        0.68131
H         -2.55989       -0.98279       -0.25016
H         -2.55404       -1.13386        1.50266
H         -3.43621        0.18414        0.73677
C         -1.27616        0.44364        0.75003
H         -1.27808        1.02522        1.67508
H         -1.28034        1.16856       -0.06716
C          0.00220       -0.38072        0.67899
H          0.00783       -1.11141        1.49383
H          0.00625       -0.96052       -0.24882
C          1.26833        0.46240        0.74937
H          1.26202        1.04425        1.67425
H          1.26164        1.18706       -0.06803
C          2.53497       -0.38043        0.68069
H          2.57244       -0.94572       -0.25045
H          3.43198        0.23442        0.73558
H          2.56921       -1.09581        1.50246
C         -0.00081        0.15782        8.54338
C          0.00026        0.01769       10.06311
H         -0.88677        0.48177       10.49648
H          0.00952       -1.03309       10.35612
H          0.87892        0.49736       10.49675
C         -1.24026       -0.52383        7.96948
H         -1.26356       -0.43487        6.88265
H         -1.25235       -1.58510        8.22249
H         -2.15121       -0.07154        8.36456
C          1.25180       -0.49972        7.96991
H          1.27313       -0.41143        6.88294
H          1.28493       -1.56028        8.22400
H          2.15361       -0.02907        8.36433
C         -0.01506        1.63762        8.16876
H          0.86271        2.14820        8.56771
H         -0.01558        1.76407        7.08510
H         -0.90316        2.13095        8.56654
