 34
 #Generated by chemFileConvert.py
  C            0.3825220    -0.0706070     0.7668960
  C           -1.0406390     0.3968110     1.0609360
  H           -1.7715750    -0.2815000     0.6183300
  H           -1.2247180     0.4357350     2.1355190
  H           -1.2140660     1.3937240     0.6530910
  C            0.5908470    -1.4668180     1.3479780
  H            1.6029140    -1.8229500     1.1501030
  H            0.4389690    -1.4667460     2.4282870
  H           -0.1099190    -2.1786840     0.9093140
  C            1.3782690     0.8984350     1.3991490
  H            2.4043940     0.5854410     1.2007340
  H            1.2437810     0.9459740     2.4807100
  H            1.2483730     1.9050230     0.9989510
  C            0.6019610    -0.1110340    -0.7430970
  H            0.4592120     0.8770390    -1.1828980
  H            1.6136940    -0.4434590    -0.9796720
  H           -0.0995310    -0.7975500    -1.2192210
  C           -0.4041380     0.0746910     6.1662900
  C            1.0186750    -0.3942750     5.8728900
  H            1.2031140    -0.4336050     4.7983700
  H            1.7501090     0.2833970     6.3156260
  H            1.1909380    -1.3912810     6.2810110
  C           -0.6105350     1.4712520     5.5854590
  H           -1.6224980     1.8282380     5.7823070
  H            0.0903840     2.1823240     6.0251810
  H           -0.4574260     1.4714490     4.5053170
  C           -0.6244320     0.1148670     7.6761430
  H           -1.6356490     0.4491440     7.9122170
  H            0.0780800     0.7998160     8.1529820
  H           -0.4838690    -0.8736530     8.1155950
  C           -1.4006010    -0.8930870     5.5331430
  H           -1.2716750    -1.9000620     5.9327220
  H           -2.4264900    -0.5793140     5.7315310
  H           -1.2658960    -0.9400610     4.4515670
