 34
 #Generated by chemFileConvert.py
  C            0.3825220    -0.0706070     0.7668960
  C           -1.0406390     0.3968110     1.0609360
  H           -1.7715750    -0.2815000     0.6183300
  H           -1.2247180     0.4357350     2.1355190
  H           -1.2140660     1.3937240     0.6530910
  C            0.5908470    -1.4668180     1.3479780
  H            1.6029140    -1.8229500     1.1501030
  H            0.4389690    -1.4667460     2.4282870
  H           -0.1099190    -2.1786840     0.9093140
  C            1.3782690     0.8984350     1.3991490
  H            2.4043940     0.5854410     1.2007340
  H            1.2437810     0.9459740     2.4807100
  H            1.2483730     1.9050230     0.9989510
  C            0.6019610    -0.1110340    -0.7430970
  H            0.4592120     0.8770390    -1.1828980
  H            1.6136940    -0.4434590    -0.9796720
  H           -0.0995310    -0.7975500    -1.2192210
  C           -0.3818490     0.0705730     6.0133010
  C            1.0409640    -0.3983930     5.7199020
  H            1.2254030    -0.4377220     4.6453810
  H            1.7723980     0.2792800     6.1626370
  H            1.2132270    -1.3953990     6.1280220
  C           -0.5882460     1.4671350     5.4324710
  H           -1.6002090     1.8241200     5.6293180
  H            0.1126730     2.1782060     5.8721930
  H           -0.4351360     1.4673320     4.3523290
  C           -0.6021430     0.1107500     7.5231550
  H           -1.6133590     0.4450270     7.7592280
  H            0.1003690     0.7956990     7.9999930
  H           -0.4615800    -0.8777710     7.9626070
  C           -1.3783110    -0.8972040     5.3801550
  H           -1.2493850    -1.9041800     5.7797340
  H           -2.4042010    -0.5834310     5.5785430
  H           -1.2436070    -0.9441790     4.2985780
