 34
 #Generated by chemFileConvert.py
  C            0.3825220    -0.0706070     0.7668960
  C           -1.0406390     0.3968110     1.0609360
  H           -1.7715750    -0.2815000     0.6183300
  H           -1.2247180     0.4357350     2.1355190
  H           -1.2140660     1.3937240     0.6530910
  C            0.5908470    -1.4668180     1.3479780
  H            1.6029140    -1.8229500     1.1501030
  H            0.4389690    -1.4667460     2.4282870
  H           -0.1099190    -2.1786840     0.9093140
  C            1.3782690     0.8984350     1.3991490
  H            2.4043940     0.5854410     1.2007340
  H            1.2437810     0.9459740     2.4807100
  H            1.2483730     1.9050230     0.9989510
  C            0.6019610    -0.1110340    -0.7430970
  H            0.4592120     0.8770390    -1.1828980
  H            1.6136940    -0.4434590    -0.9796720
  H           -0.0995310    -0.7975500    -1.2192210
  C           -0.2279100     0.0421380     4.9566980
  C            1.1949020    -0.4268280     4.6632980
  H            1.3793420    -0.4661570     3.5887780
  H            1.9263370     0.2508450     5.1060340
  H            1.3671660    -1.4238340     5.0714190
  C           -0.4343070     1.4387000     4.3758680
  H           -1.4462700     1.7956850     4.5727150
  H            0.2666120     2.1497710     4.8155890
  H           -0.2811980     1.4388970     3.2957250
  C           -0.4482050     0.0823150     6.4665520
  H           -1.4594210     0.4165920     6.7026250
  H            0.2543080     0.7672640     6.9433900
  H           -0.3076410    -0.9062060     6.9060030
  C           -1.2243730    -0.9256390     4.3235520
  H           -1.0954470    -1.9326150     4.7231310
  H           -2.2502620    -0.6118660     4.5219390
  H           -1.0896680    -0.9726140     3.2419750
