34
036_Neopentane-Neopentane_1.90.txyz
C          0.38252       -0.07061        0.76690
C         -1.04064        0.39681        1.06094
H         -1.77157       -0.28150        0.61833
H         -1.22472        0.43573        2.13552
H         -1.21407        1.39372        0.65309
C          0.59085       -1.46682        1.34798
H          1.60291       -1.82295        1.15010
H          0.43897       -1.46675        2.42829
H         -0.10992       -2.17868        0.90931
C          1.37827        0.89843        1.39915
H          2.40439        0.58544        1.20073
H          1.24378        0.94597        2.48071
H          1.24837        1.90502        0.99895
C          0.60196       -0.11103       -0.74310
H          0.45921        0.87704       -1.18290
H          1.61369       -0.44346       -0.97967
H         -0.09953       -0.79755       -1.21922
C         -0.88613        0.16372        9.47458
C          0.53668       -0.30524        9.18118
H          0.72112       -0.34457        8.10666
H          1.26812        0.37243        9.62392
H          0.70895       -1.30225        9.58930
C         -1.09253        1.56028        8.89375
H         -2.10449        1.91727        9.09060
H         -0.39161        2.27136        9.33347
H         -0.93942        1.56048        7.81361
C         -1.10642        0.20390       10.98443
H         -2.11764        0.53818       11.22051
H         -0.40391        0.88885       11.46127
H         -0.96586       -0.78462       11.42389
C         -1.88259       -0.80405        8.84144
H         -1.75367       -1.81103        9.24101
H         -2.90848       -0.49028        9.03982
H         -1.74789       -0.85103        7.75986
