34
036_Neopentane-Neopentane_1.30.txyz
C          0.38252       -0.07061        0.76690
C         -1.04064        0.39681        1.06094
H         -1.77157       -0.28150        0.61833
H         -1.22472        0.43573        2.13552
H         -1.21407        1.39372        0.65309
C          0.59085       -1.46682        1.34798
H          1.60291       -1.82295        1.15010
H          0.43897       -1.46675        2.42829
H         -0.10992       -2.17868        0.90931
C          1.37827        0.89843        1.39915
H          2.40439        0.58544        1.20073
H          1.24378        0.94597        2.48071
H          1.24837        1.90502        0.99895
C          0.60196       -0.11103       -0.74310
H          0.45921        0.87704       -1.18290
H          1.61369       -0.44346       -0.97967
H         -0.09953       -0.79755       -1.21922
C         -0.54101        0.09997        7.10575
C          0.88180       -0.36899        6.81235
H          1.06624       -0.40832        5.73783
H          1.61324        0.30868        7.25508
H          1.05407       -1.36600        7.22047
C         -0.74741        1.49653        6.52492
H         -1.75937        1.85352        6.72176
H         -0.04649        2.20761        6.96464
H         -0.59430        1.49673        5.44477
C         -0.76130        0.14015        8.61560
H         -1.77252        0.47443        8.85167
H         -0.05879        0.82510        9.09244
H         -0.62074       -0.84837        9.05505
C         -1.53747       -0.86780        6.47260
H         -1.40855       -1.87478        6.87218
H         -2.56336       -0.55403        6.67099
H         -1.40277       -0.91478        5.39102
