 32
 #Generated by chemFileConvert.py
  C            0.7999140    -1.0220520     0.6877370
  H            0.8535560    -1.1220510    -0.3980140
  H            1.4914020    -1.7441690     1.1197200
  C            1.1168870     0.4249530     1.0996620
  H            1.8381420     0.8901450     0.4304530
  H            1.5555700     0.4398250     2.0970840
  C           -0.2445590     1.1656900     1.1029770
  H           -0.2580780     2.0008630     0.4053230
  H           -0.4488040     1.5769960     2.0909840
  C           -1.2987140     0.1038120     0.7393090
  H           -1.4735610     0.1052430    -0.3380050
  H           -2.2567340     0.2780410     1.2271580
  C           -0.6468800    -1.2200680     1.1363070
  H           -1.1244390    -2.0876270     0.6829930
  H           -0.6860190    -1.3452830     2.2202200
  C            0.0345810     0.0644800     4.9324220
  C           -0.0617630    -0.0876060     6.4480620
  H            0.9307830    -0.1030730     6.9004200
  H           -0.6206880     0.7402780     6.8864970
  H           -0.5689280    -1.0162720     6.7134120
  C            0.7486340     1.3713850     4.5967970
  H            0.8301540     1.5048840     3.5171150
  H            0.2051620     2.2260730     5.0022980
  H            1.7562390     1.3820350     5.0150300
  C           -1.3704310     0.0843040     4.3351020
  H           -1.3334990     0.2014940     3.2512530
  H           -1.9527300     0.9117280     4.7434480
  H           -1.9003340    -0.8434830     4.5564320
  C            0.8224810    -1.1090050     4.3550840
  H            0.3272610    -2.0559960     4.5753270
  H            0.9173240    -1.0218220     3.2719490
  H            1.8271990    -1.1464100     4.7788320
