32
037_Cyclopentane-Neopentane_1.60.txyz
C          0.79991       -1.02205        0.68774
H          0.85356       -1.12205       -0.39801
H          1.49140       -1.74417        1.11972
C          1.11689        0.42495        1.09966
H          1.83814        0.89014        0.43045
H          1.55557        0.43983        2.09708
C         -0.24456        1.16569        1.10298
H         -0.25808        2.00086        0.40532
H         -0.44880        1.57700        2.09098
C         -1.29871        0.10381        0.73931
H         -1.47356        0.10524       -0.33800
H         -2.25673        0.27804        1.22716
C         -0.64688       -1.22007        1.13631
H         -1.12444       -2.08763        0.68299
H         -0.68602       -1.34528        2.22022
C          0.09415        0.18048        7.60088
C         -0.00220        0.02839        9.11651
H          0.99035        0.01293        9.56887
H         -0.56112        0.85628        9.55495
H         -0.50936       -0.90027        9.38186
C          0.80820        1.48738        7.26525
H          0.88972        1.62088        6.18557
H          0.26473        2.34207        7.67075
H          1.81580        1.49804        7.68348
C         -1.31087        0.20031        7.00356
H         -1.27394        0.31749        5.91971
H         -1.89317        1.02773        7.41190
H         -1.84077       -0.72748        7.22488
C          0.88204       -0.99301        7.02354
H          0.38682       -1.94000        7.24378
H          0.97689       -0.90582        5.94040
H          1.88676       -1.03041        7.44728
