32
037_Cyclopentane-Neopentane_1.30.txyz
C          0.79991       -1.02205        0.68774
H          0.85356       -1.12205       -0.39801
H          1.49140       -1.74417        1.11972
C          1.11689        0.42495        1.09966
H          1.83814        0.89014        0.43045
H          1.55557        0.43983        2.09708
C         -0.24456        1.16569        1.10298
H         -0.25808        2.00086        0.40532
H         -0.44880        1.57700        2.09098
C         -1.29871        0.10381        0.73931
H         -1.47356        0.10524       -0.33800
H         -2.25673        0.27804        1.22716
C         -0.64688       -1.22007        1.13631
H         -1.12444       -2.08763        0.68299
H         -0.68602       -1.34528        2.22022
C          0.07168        0.13672        6.59420
C         -0.02467       -0.01537        8.10984
H          0.96788       -0.03083        8.56220
H         -0.58359        0.81252        8.54828
H         -0.53183       -0.94403        8.37519
C          0.78573        1.44362        6.25858
H          0.86725        1.57712        5.17889
H          0.24226        2.29831        6.66408
H          1.79333        1.45427        6.67681
C         -1.33334        0.15654        5.99688
H         -1.29641        0.27373        4.91303
H         -1.91564        0.98397        6.40523
H         -1.86324       -0.77124        6.21821
C          0.85957       -1.03677        6.01686
H          0.36435       -1.98376        6.23711
H          0.95442       -0.94958        4.93373
H          1.86429       -1.07417        6.44061
