 32
 #Generated by chemFileConvert.py
  C            0.7999140    -1.0220520     0.6877370
  H            0.8535560    -1.1220510    -0.3980140
  H            1.4914020    -1.7441690     1.1197200
  C            1.1168870     0.4249530     1.0996620
  H            1.8381420     0.8901450     0.4304530
  H            1.5555700     0.4398250     2.0970840
  C           -0.2445590     1.1656900     1.1029770
  H           -0.2580780     2.0008630     0.4053230
  H           -0.4488040     1.5769960     2.0909840
  C           -1.2987140     0.1038120     0.7393090
  H           -1.4735610     0.1052430    -0.3380050
  H           -2.2567340     0.2780410     1.2271580
  C           -0.6468800    -1.2200680     1.1363070
  H           -1.1244390    -2.0876270     0.6829930
  H           -0.6860190    -1.3452830     2.2202200
  C            0.0566950     0.1075450     5.9230850
  C           -0.0396490    -0.0445410     7.4387250
  H            0.9528970    -0.0600070     7.8910820
  H           -0.5985740     0.7833430     7.8771600
  H           -0.5468140    -0.9732070     7.7040750
  C            0.7707480     1.4144500     5.5874600
  H            0.8522680     1.5479490     4.5077780
  H            0.2272760     2.2691380     5.9929610
  H            1.7783530     1.4251000     6.0056930
  C           -1.3483170     0.1273700     5.3257650
  H           -1.3113850     0.2445590     4.2419160
  H           -1.9306170     0.9547930     5.7341110
  H           -1.8782200    -0.8004170     5.5470940
  C            0.8445950    -1.0659400     5.3457470
  H            0.3493740    -2.0129310     5.5659900
  H            0.9394380    -0.9787570     4.2626120
  H            1.8493130    -1.1033450     5.7694950
