30
038_Cyclopentane-Cyclopentane_1.90.txyz
C          0.95688       -0.89185        1.14195
H          1.50457       -1.27836        0.28342
H          1.42138       -1.31478        2.03103
C          0.99095        0.65851        1.14550
H          1.51059        1.02310        0.25995
H          1.51626        1.05982        2.01054
C         -0.47945        1.10232        1.10388
H         -0.61627        2.06488        0.61357
H         -0.87474        1.18907        2.11807
C         -1.18211       -0.05280        0.39335
H         -0.94888       -0.02683       -0.67380
H         -2.26566       -0.03356        0.50127
C         -0.53066       -1.27489        1.03931
H         -0.69039       -2.19702        0.48299
H         -0.95085       -1.41541        2.03675
C         -1.07040       -0.26012        7.86791
H         -1.40353       -0.02342        6.85533
H         -1.87518       -0.80322        8.36090
C          0.24321       -1.05566        7.82015
H          0.29315       -1.71341        6.95402
H          0.32350       -1.68702        8.70454
C          1.37253        0.00704        7.82075
H          1.99379       -0.05364        6.92887
H          2.02994       -0.14284        8.67615
C          0.66235        1.36871        7.92861
H          0.48249        1.77720        6.93261
H          1.24274        2.10311        8.48459
C         -0.67970        1.03424        8.57842
H         -1.41937        1.82675        8.47354
H         -0.53966        0.84260        9.64497
