30
038_Cyclopentane-Cyclopentane_1.60.txyz
C          0.95688       -0.89185        1.14195
H          1.50457       -1.27836        0.28342
H          1.42138       -1.31478        2.03103
C          0.99095        0.65851        1.14550
H          1.51059        1.02310        0.25995
H          1.51626        1.05982        2.01054
C         -0.47945        1.10232        1.10388
H         -0.61627        2.06488        0.61357
H         -0.87474        1.18907        2.11807
C         -1.18211       -0.05280        0.39335
H         -0.94888       -0.02683       -0.67380
H         -2.26566       -0.03356        0.50127
C         -0.53066       -1.27489        1.03931
H         -0.69039       -2.19702        0.48299
H         -0.95085       -1.41541        2.03675
C         -1.09090       -0.30134        6.93173
H         -1.42403       -0.06464        5.91914
H         -1.89569       -0.84443        7.42471
C          0.22270       -1.09688        6.88397
H          0.27265       -1.75462        6.01783
H          0.30299       -1.72824        7.76835
C          1.35202       -0.03417        6.88456
H          1.97329       -0.09485        5.99269
H          2.00943       -0.18406        7.73997
C          0.64185        1.32750        6.99243
H          0.46198        1.73599        5.99643
H          1.22223        2.06190        7.54840
C         -0.70020        0.99302        7.64224
H         -1.43987        1.78553        7.53736
H         -0.56017        0.80138        8.70879
