 30
 #Generated by chemFileConvert.py
  C            0.9568800    -0.8918460     1.1419500
  H            1.5045660    -1.2783580     0.2834200
  H            1.4213840    -1.3147780     2.0310250
  C            0.9909490     0.6585080     1.1455040
  H            1.5105940     1.0230960     0.2599480
  H            1.5162580     1.0598180     2.0105370
  C           -0.4794520     1.1023190     1.1038790
  H           -0.6162690     2.0648770     0.6135670
  H           -0.8747420     1.1890710     2.1180700
  C           -1.1821070    -0.0527970     0.3933460
  H           -0.9488820    -0.0268300    -0.6738050
  H           -2.2656650    -0.0335650     0.5012740
  C           -0.5306600    -1.2748900     1.0393100
  H           -0.6903910    -2.1970210     0.4829920
  H           -0.9508490    -1.4154120     2.0367480
  C           -1.1283790    -0.3766700     5.2206040
  H           -1.4615140    -0.1399710     4.2080200
  H           -1.9331680    -0.9197690     5.7135910
  C            0.1852270    -1.1722150     5.1728430
  H            0.2351720    -1.8299580     4.3067090
  H            0.2655150    -1.8035730     6.0572280
  C            1.3145420    -0.1095090     5.1734390
  H            1.9358070    -0.1701880     4.2815650
  H            1.9719520    -0.2593920     6.0288440
  C            0.6043690     1.2521600     5.2813060
  H            0.4245060     1.6606510     4.2853070
  H            1.1847530     1.9865630     5.8372790
  C           -0.7376830     0.9176870     5.9311180
  H           -1.4773520     1.7101990     5.8262360
  H           -0.5976430     0.7260470     6.9976670
