 30
 #Generated by chemFileConvert.py
  C            0.9568800    -0.8918460     1.1419500
  H            1.5045660    -1.2783580     0.2834200
  H            1.4213840    -1.3147780     2.0310250
  C            0.9909490     0.6585080     1.1455040
  H            1.5105940     1.0230960     0.2599480
  H            1.5162580     1.0598180     2.0105370
  C           -0.4794520     1.1023190     1.1038790
  H           -0.6162690     2.0648770     0.6135670
  H           -0.8747420     1.1890710     2.1180700
  C           -1.1821070    -0.0527970     0.3933460
  H           -0.9488820    -0.0268300    -0.6738050
  H           -2.2656650    -0.0335650     0.5012740
  C           -0.5306600    -1.2748900     1.0393100
  H           -0.6903910    -2.1970210     0.4829920
  H           -0.9508490    -1.4154120     2.0367480
  C           -1.1382460    -0.3965040     4.7701120
  H           -1.4713800    -0.1598050     3.7575270
  H           -1.9430340    -0.9396020     5.2630980
  C            0.1753600    -1.1920490     4.7223510
  H            0.2253050    -1.8497910     3.8562170
  H            0.2556480    -1.8234060     5.6067360
  C            1.3046760    -0.1293430     4.7229470
  H            1.9259410    -0.1900220     3.8310730
  H            1.9620850    -0.2792260     5.5783520
  C            0.5945020     1.2323260     4.8308140
  H            0.4146390     1.6408180     3.8348140
  H            1.1748860     1.9667290     5.3867870
  C           -0.7475500     0.8978530     5.4806250
  H           -1.4872190     1.6903650     5.3757440
  H           -0.6075100     0.7062130     6.5471740
