 27
 #Generated by chemFileConvert.py
  C            0.7655450     0.8682440     0.8209910
  H            1.4374760     1.6800070     1.0651030
  C            1.2376530    -0.4428380     0.7938880
  H            2.2757590    -0.6485380     1.0177110
  C            0.3722370    -1.4885370     0.4772690
  H            0.7381880    -2.5060800     0.4570560
  C           -0.9649330    -1.2229720     0.1868780
  H           -1.6364590    -2.0345610    -0.0577740
  C           -1.4370650     0.0884060     0.2132770
  H           -2.4746840     0.2943020    -0.0114670
  C           -0.5719060     1.1340240     0.5308130
  H           -0.9376990     2.1517110     0.5510780
  C           -0.7573390    -0.7159610     4.1949370
  H           -0.8635930    -0.5410110     3.1226300
  H           -1.4089770    -1.5452240     4.4680870
  C            0.7122020    -0.9730240     4.5390670
  H            1.2074330    -1.6106090     3.8084820
  H            0.7754810    -1.4732370     5.5065330
  C            1.3523390     0.4323730     4.6300190
  H            2.0026070     0.6250440     3.7781660
  H            1.9652060     0.5215420     5.5257450
  C            0.1732930     1.4315500     4.6568910
  H            0.0561410     1.8905200     3.6746060
  H            0.3188860     2.2330550     5.3792900
  C           -1.0604790     0.5744550     4.9525400
  H           -1.9914670     1.0501920     4.6466270
  H           -1.1259050     0.3651340     6.0230760
