 27
 #Generated by chemFileConvert.py
  C            0.7655450     0.8682440     0.8209910
  H            1.4374760     1.6800070     1.0651030
  C            1.2376530    -0.4428380     0.7938880
  H            2.2757590    -0.6485380     1.0177110
  C            0.3722370    -1.4885370     0.4772690
  H            0.7381880    -2.5060800     0.4570560
  C           -0.9649330    -1.2229720     0.1868780
  H           -1.6364590    -2.0345610    -0.0577740
  C           -1.4370650     0.0884060     0.2132770
  H           -2.4746840     0.2943020    -0.0114670
  C           -0.5719060     1.1340240     0.5308130
  H           -0.9376990     2.1517110     0.5510780
  C           -0.7647720    -0.7291070     4.0306770
  H           -0.8710260    -0.5541580     2.9583700
  H           -1.4164100    -1.5583710     4.3038280
  C            0.7047690    -0.9861700     4.3748070
  H            1.2000000    -1.6237550     3.6442230
  H            0.7680480    -1.4863840     5.3422740
  C            1.3449060     0.4192270     4.4657600
  H            1.9951740     0.6118980     3.6139070
  H            1.9577730     0.5083960     5.3614850
  C            0.1658600     1.4184040     4.4926320
  H            0.0487080     1.8773740     3.5103460
  H            0.3114530     2.2199090     5.2150300
  C           -1.0679120     0.5613090     4.7882810
  H           -1.9989000     1.0370460     4.4823680
  H           -1.1333380     0.3519880     5.8588160
