 27
 #Generated by chemFileConvert.py
  C            0.7655450     0.8682440     0.8209910
  H            1.4374760     1.6800070     1.0651030
  C            1.2376530    -0.4428380     0.7938880
  H            2.2757590    -0.6485380     1.0177110
  C            0.3722370    -1.4885370     0.4772690
  H            0.7381880    -2.5060800     0.4570560
  C           -0.9649330    -1.2229720     0.1868780
  H           -1.6364590    -2.0345610    -0.0577740
  C           -1.4370650     0.0884060     0.2132770
  H           -2.4746840     0.2943020    -0.0114670
  C           -0.5719060     1.1340240     0.5308130
  H           -0.9376990     2.1517110     0.5510780
  C           -0.8051160    -0.8004590     3.1391460
  H           -0.9113700    -0.6255100     2.0668390
  H           -1.4567540    -1.6297230     3.4122960
  C            0.6644250    -1.0575220     3.4832760
  H            1.1596560    -1.6951070     2.7526910
  H            0.7277040    -1.5577360     4.4507420
  C            1.3045620     0.3478740     3.5742280
  H            1.9548310     0.5405450     2.7223750
  H            1.9174290     0.4370440     4.4699540
  C            0.1255160     1.3470510     3.6011000
  H            0.0083650     1.8060220     2.6188150
  H            0.2711100     2.1485560     4.3234990
  C           -1.1082560     0.4899560     3.8967490
  H           -2.0392440     0.9656940     3.5908360
  H           -1.1736810     0.2806350     4.9672850
