 29
 #Generated by chemFileConvert.py
  C            0.3119540     0.5610230     0.4966990
  H            0.7421360     1.5533690     0.4815660
  C            1.1421820    -0.5580750     0.5360620
  H            2.2165110    -0.4342500     0.5523500
  C            0.5878040    -1.8366870     0.5541440
  H            1.2319120    -2.7048420     0.5852220
  C           -0.7966580    -1.9963760     0.5329630
  H           -1.2267740    -2.9884440     0.5486370
  C           -1.6268930    -0.8774740     0.4941680
  H           -2.7011220    -1.0013500     0.4798150
  C           -1.0726650     0.4012060     0.4759740
  H           -1.7169740     1.2694010     0.4459200
  C            0.1989950     0.5289230     4.1280860
  C            1.6452430     0.7077100     3.6731240
  H            2.0611000     1.6409880     4.0565470
  H            2.2686430    -0.1129060     4.0319780
  H            1.7058520     0.7271010     2.5841900
  C            0.1446030     0.4975510     5.6529510
  H           -0.8811870     0.3701310     6.0020390
  H            0.7400090    -0.3281350     6.0455050
  H            0.5328980     1.4254360     6.0758570
  C           -0.3503850    -0.7805690     3.5677900
  H           -1.3852590    -0.9308440     3.8804610
  H            0.2360710    -1.6295430     3.9236010
  H           -0.3216060    -0.7810220     2.4774750
  C           -0.6423780     1.6934940     3.6118800
  H           -0.6208370     1.7295250     2.5218820
  H           -1.6821670     1.5897250     3.9263630
  H           -0.2667260     2.6441890     3.9939870
