 29
 #Generated by chemFileConvert.py
  C            0.3119540     0.5610230     0.4966990
  H            0.7421360     1.5533690     0.4815660
  C            1.1421820    -0.5580750     0.5360620
  H            2.2165110    -0.4342500     0.5523500
  C            0.5878040    -1.8366870     0.5541440
  H            1.2319120    -2.7048420     0.5852220
  C           -0.7966580    -1.9963760     0.5329630
  H           -1.2267740    -2.9884440     0.5486370
  C           -1.6268930    -0.8774740     0.4941680
  H           -2.7011220    -1.0013500     0.4798150
  C           -1.0726650     0.4012060     0.4759740
  H           -1.7169740     1.2694010     0.4459200
  C            0.2142890     0.5411420     3.7492450
  C            1.6605380     0.7199290     3.2942840
  H            2.0763940     1.6532070     3.6777070
  H            2.2839370    -0.1006870     3.6531370
  H            1.7211470     0.7393200     2.2053490
  C            0.1598980     0.5097700     5.2741100
  H           -0.8658920     0.3823500     5.6231980
  H            0.7553030    -0.3159160     5.6666640
  H            0.5481920     1.4376550     5.6970160
  C           -0.3350910    -0.7683500     3.1889490
  H           -1.3699650    -0.9186250     3.5016210
  H            0.2513650    -1.6173240     3.5447600
  H           -0.3063110    -0.7688030     2.0986350
  C           -0.6270840     1.7057130     3.2330400
  H           -0.6055430     1.7417440     2.1430410
  H           -1.6668730     1.6019440     3.5475220
  H           -0.2514310     2.6564080     3.6151470
