 29
 #Generated by chemFileConvert.py
  N           -0.2089050    -0.9645830     0.5347610
  H           -0.2241510    -1.9731090     0.6050840
  C           -1.4463420    -0.3445810     0.3066590
  O           -2.4612370    -1.0107920     0.1978920
  C           -1.3577820     1.1031860     0.2281440
  H           -2.2565720     1.6677310     0.0498470
  C           -0.1630030     1.7098930     0.3811260
  H           -0.0462900     2.7824460     0.3333500
  N            0.9854520     1.0008240     0.6112060
  H            1.8675600     1.4669280     0.7447840
  C            1.0270210    -0.3791700     0.7126470
  O            2.0491970    -0.9973950     0.9372600
  C            1.0946900     2.3509680     3.5012340
  H            0.6638420     2.6620170     2.5484520
  H            0.4604560     2.7564010     4.2894820
  H            2.0775700     2.8114160     3.5943560
  C            1.1677070     0.8320970     3.5907520
  H            1.5980900     0.5425340     4.5520430
  H            1.8422960     0.4409370     2.8256340
  C           -0.1970790     0.1739310     3.4359360
  H           -0.8683230     0.5428060     4.2175550
  H           -0.6445490     0.4841960     2.4860350
  C           -0.1407900    -1.3467560     3.4955710
  H            0.2828160    -1.6491860     4.4562070
  H            0.5507320    -1.7086350     2.7310690
  C           -1.5100730    -1.9886290     3.3117980
  H           -1.9484520    -1.7151720     2.3516120
  H           -1.4531340    -3.0753980     3.3558550
  H           -2.1980350    -1.6602830     4.0910310
