29
041_Uracil-Pentane_1.60.txyz
N         -0.20891       -0.96458        0.53476
H         -0.22415       -1.97311        0.60508
C         -1.44634       -0.34458        0.30666
O         -2.46124       -1.01079        0.19789
C         -1.35778        1.10319        0.22814
H         -2.25657        1.66773        0.04985
C         -0.16300        1.70989        0.38113
H         -0.04629        2.78245        0.33335
N          0.98545        1.00082        0.61121
H          1.86756        1.46693        0.74478
C          1.02702       -0.37917        0.71265
O          2.04920       -0.99740        0.93726
C          1.29605        2.37710        5.89684
H          0.86521        2.68815        4.94405
H          0.66182        2.78253        6.68508
H          2.27894        2.83755        5.98996
C          1.36907        0.85823        5.98636
H          1.79946        0.56867        6.94765
H          2.04366        0.46707        5.22124
C          0.00429        0.20006        5.83154
H         -0.66696        0.56894        6.61316
H         -0.44318        0.51033        4.88164
C          0.06057       -1.32062        5.89117
H          0.48418       -1.62305        6.85181
H          0.75210       -1.68250        5.12667
C         -1.30871       -1.96250        5.70740
H         -1.74709       -1.68904        4.74721
H         -1.25177       -3.04927        5.75146
H         -1.99667       -1.63415        6.48663
