 29
 #Generated by chemFileConvert.py
  N           -0.2089050    -0.9645830     0.5347610
  H           -0.2241510    -1.9731090     0.6050840
  C           -1.4463420    -0.3445810     0.3066590
  O           -2.4612370    -1.0107920     0.1978920
  C           -1.3577820     1.1031860     0.2281440
  H           -2.2565720     1.6677310     0.0498470
  C           -0.1630030     1.7098930     0.3811260
  H           -0.0462900     2.7824460     0.3333500
  N            0.9854520     1.0008240     0.6112060
  H            1.8675600     1.4669280     0.7447840
  C            1.0270210    -0.3791700     0.7126470
  O            2.0491970    -0.9973950     0.9372600
  C            1.1709950     2.3608710     4.4090120
  H            0.7401460     2.6719190     3.4562300
  H            0.5367610     2.7663040     5.1972600
  H            2.1538750     2.8213180     4.5021340
  C            1.2440110     0.8420000     4.4985310
  H            1.6743950     0.5524370     5.4598220
  H            1.9186010     0.4508390     3.7334120
  C           -0.1207740     0.1838330     4.3437140
  H           -0.7920180     0.5527090     5.1253330
  H           -0.5682450     0.4940980     3.3938140
  C           -0.0644850    -1.3368540     4.4033490
  H            0.3591200    -1.6392840     5.3639860
  H            0.6270370    -1.6987330     3.6388470
  C           -1.4337680    -1.9787270     4.2195760
  H           -1.8721470    -1.7052690     3.2593900
  H           -1.3768290    -3.0654950     4.2636330
  H           -2.1217310    -1.6503810     4.9988090
