 29
 #Generated by chemFileConvert.py
  N           -0.2089050    -0.9645830     0.5347610
  H           -0.2241510    -1.9731090     0.6050840
  C           -1.4463420    -0.3445810     0.3066590
  O           -2.4612370    -1.0107920     0.1978920
  C           -1.3577820     1.1031860     0.2281440
  H           -2.2565720     1.6677310     0.0498470
  C           -0.1630030     1.7098930     0.3811260
  H           -0.0462900     2.7824460     0.3333500
  N            0.9854520     1.0008240     0.6112060
  H            1.8675600     1.4669280     0.7447840
  C            1.0270210    -0.3791700     0.7126470
  O            2.0491970    -0.9973950     0.9372600
  C            1.1194340     2.3541790     3.7956040
  H            0.6885850     2.6652280     2.8428220
  H            0.4852000     2.7596120     4.5838520
  H            2.1023140     2.8146270     3.8887260
  C            1.1924500     0.8353080     3.8851220
  H            1.6228340     0.5457450     4.8464130
  H            1.8670400     0.4441480     3.1200040
  C           -0.1723350     0.1771420     3.7303060
  H           -0.8435790     0.5460170     4.5119250
  H           -0.6198060     0.4874070     2.7804050
  C           -0.1160460    -1.3435450     3.7899410
  H            0.3075600    -1.6459750     4.7505770
  H            0.5754760    -1.7054240     3.0254390
  C           -1.4853290    -1.9854180     3.6061680
  H           -1.9237080    -1.7119600     2.6459820
  H           -1.4283900    -3.0721860     3.6502250
  H           -2.1732920    -1.6570720     4.3854010
