 29
 #Generated by chemFileConvert.py
  N           -0.2089050    -0.9645830     0.5347610
  H           -0.2241510    -1.9731090     0.6050840
  C           -1.4463420    -0.3445810     0.3066590
  O           -2.4612370    -1.0107920     0.1978920
  C           -1.3577820     1.1031860     0.2281440
  H           -2.2565720     1.6677310     0.0498470
  C           -0.1630030     1.7098930     0.3811260
  H           -0.0462900     2.7824460     0.3333500
  N            0.9854520     1.0008240     0.6112060
  H            1.8675600     1.4669280     0.7447840
  C            1.0270210    -0.3791700     0.7126470
  O            2.0491970    -0.9973950     0.9372600
  C            1.1439780     2.3573640     4.0876010
  H            0.7131290     2.6684130     3.1348190
  H            0.5097440     2.7627980     4.8758490
  H            2.1268580     2.8178120     4.1807230
  C            1.2169950     0.8384940     4.1771190
  H            1.6473780     0.5489310     5.1384100
  H            1.8915840     0.4473330     3.4120010
  C           -0.1477910     0.1803270     4.0223030
  H           -0.8190350     0.5492030     4.8039220
  H           -0.5952610     0.4905920     3.0724020
  C           -0.0915020    -1.3403600     4.0819380
  H            0.3321040    -1.6427900     5.0425740
  H            0.6000200    -1.7022390     3.3174360
  C           -1.4607850    -1.9822330     3.8981650
  H           -1.8991640    -1.7087750     2.9379790
  H           -1.4038460    -3.0690010     3.9422220
  H           -2.1487470    -1.6538870     4.6773980
