 27
 #Generated by chemFileConvert.py
  N            0.1957300    -0.8446890     0.8238460
  H            0.4503980    -1.7967530     1.0497680
  C           -1.1790490    -0.5736840     0.7594830
  O           -1.9936460    -1.4562650     0.9669010
  C           -1.4767150     0.8111560     0.4375600
  H           -2.5063560     1.1156510     0.3638950
  C           -0.4681130     1.6829620     0.2348910
  H           -0.6384350     2.7216430    -0.0061640
  N            0.8456290     1.3059910     0.3268310
  H            1.5896930     1.9688790     0.1859600
  C            1.2542610     0.0194620     0.6362440
  O            2.4223040    -0.3017160     0.7318790
  C            1.0668750    -0.8690420     4.7281700
  H            1.5207280    -0.9610980     3.7401870
  H            1.6113780    -1.5330220     5.3973670
  C            1.1211890     0.5969100     5.1611060
  H            2.0794790     1.0698090     4.9503810
  H            0.9330730     0.6785480     6.2343290
  C           -0.0461630     1.2097240     4.3903350
  H            0.2281410     1.2985060     3.3368630
  H           -0.3305770     2.2008660     4.7419690
  C           -1.1631070     0.1721530     4.5613630
  H           -1.8886470     0.1957660     3.7499910
  H           -1.7071930     0.3768500     5.4836110
  C           -0.4400710    -1.1943950     4.6650200
  H           -0.6827360    -1.8385510     3.8216600
  H           -0.7551770    -1.7217980     5.5641060
