29
043_Uracil-Neopentane_1.90.txyz
N          0.62608       -0.85091        0.80592
H          0.40919       -1.81150        1.03440
C         -0.43246       -0.08734        0.29466
O         -1.53077       -0.58840        0.12359
C         -0.06688        1.29127        0.01964
H         -0.80974        1.95181       -0.39284
C          1.18354        1.71793        0.29053
H          1.50185        2.73387        0.10983
N          2.13413        0.88660        0.81908
H          3.05534        1.22390        1.04343
C          1.90278       -0.44318        1.12831
O          2.74381       -1.16392        1.62859
C         -1.51460       -0.08250        7.22670
C         -2.83134        0.65879        7.44157
H         -3.53841        0.04059        7.99643
H         -2.67184        1.57898        8.00576
H         -3.28905        0.92029        6.48642
C         -0.89916       -0.43593        8.57797
H          0.04400       -0.96831        8.44719
H         -0.70214        0.46381        9.16278
H         -1.57045       -1.07367        9.15471
C         -0.54947        0.81098        6.45091
H          0.39910        0.29839        6.28055
H         -0.34418        1.72912        7.00433
H         -0.97187        1.08947        5.48344
C         -1.77591       -1.36253        6.43633
H         -2.23965       -1.14070        5.47371
H         -0.84334       -1.90093        6.25669
H         -2.44642       -2.02434        6.98652
