 29
 #Generated by chemFileConvert.py
  N            0.6260810    -0.8509130     0.8059160
  H            0.4091900    -1.8115010     1.0344010
  C           -0.4324560    -0.0873360     0.2946640
  O           -1.5307720    -0.5884030     0.1235930
  C           -0.0668750     1.2912750     0.0196370
  H           -0.8097440     1.9518100    -0.3928400
  C            1.1835420     1.7179350     0.2905330
  H            1.5018500     2.7338710     0.1098330
  N            2.1341300     0.8866020     0.8190820
  H            3.0553360     1.2239010     1.0434280
  C            1.9027830    -0.4431780     1.1283120
  O            2.7438060    -1.1639240     1.6285870
  C           -0.6385920    -0.0306000     4.7735860
  C           -1.9553380     0.7106890     4.9884590
  H           -2.6624100     0.0924830     5.5433210
  H           -1.7958390     1.6308730     5.5526440
  H           -2.4130480     0.9721860     4.0333050
  C           -0.0231550    -0.3840380     6.1248630
  H            0.9200070    -0.9164110     5.9940820
  H            0.1738650     0.5157040     6.7096650
  H           -0.6944500    -1.0217750     6.7016000
  C            0.3265320     0.8628780     3.9977970
  H            1.2751030     0.3502830     3.8274430
  H            0.5318220     1.7810140     4.5512230
  H           -0.0958630     1.1413640     3.0303320
  C           -0.8999090    -1.3106340     3.9832210
  H           -1.3636480    -1.0888010     3.0205960
  H            0.0326670    -1.8490330     3.8035840
  H           -1.5704170    -1.9724480     4.5334060
