29
043_Uracil-Neopentane_1.60.txyz
N          0.62608       -0.85091        0.80592
H          0.40919       -1.81150        1.03440
C         -0.43246       -0.08734        0.29466
O         -1.53077       -0.58840        0.12359
C         -0.06688        1.29127        0.01964
H         -0.80974        1.95181       -0.39284
C          1.18354        1.71793        0.29053
H          1.50185        2.73387        0.10983
N          2.13413        0.88660        0.81908
H          3.05534        1.22390        1.04343
C          1.90278       -0.44318        1.12831
O          2.74381       -1.16392        1.62859
C         -1.22478       -0.06533        6.41512
C         -2.54153        0.67596        6.62999
H         -3.24860        0.05776        7.18485
H         -2.38203        1.59615        7.19417
H         -2.99924        0.93746        5.67483
C         -0.60935       -0.41876        7.76639
H          0.33382       -0.95114        7.63561
H         -0.41232        0.48098        8.35120
H         -1.28064       -1.05650        8.34313
C         -0.25966        0.82815        5.63933
H          0.68891        0.31556        5.46897
H         -0.05437        1.74629        6.19275
H         -0.68205        1.10664        4.67186
C         -1.48610       -1.34536        5.62475
H         -1.94984       -1.12353        4.66213
H         -0.55352       -1.88376        5.44511
H         -2.15661       -2.00718        6.17494
