 23
 #Generated by chemFileConvert.py
  C            0.6664000     0.1838110     0.4197370
  H            1.2288820    -0.3298830     1.1862600
  H            1.2280360     0.6972080    -0.3476100
  C           -0.6659740     0.1829730     0.4196120
  H           -1.2279220    -0.3314990     1.1861030
  H           -1.2281840     0.6956460    -0.3477480
  C           -2.5327650    -0.3979810     4.2118240
  H           -2.5622580    -1.0110020     3.3106340
  H           -2.5688990    -1.0722020     5.0674410
  H           -3.4339360     0.2130350     4.2290700
  C           -1.2713280     0.4546940     4.2476420
  H           -1.2717340     1.0747880     5.1470360
  H           -1.2629400     1.1416030     3.3985810
  C           -0.0000540    -0.3828630     4.2206990
  H           -0.0002080    -1.0695360     5.0725310
  H            0.0000870    -1.0104410     3.3240560
  C            1.2711660     0.4547230     4.2481030
  H            1.2714390     1.0745340     5.1475890
  H            1.2629710     1.1417980     3.3991960
  C            2.5326180    -0.3980010     4.2122790
  H            2.5622410    -1.0108580     3.3109700
  H            3.4337960     0.2129350     4.2298570
  H            2.5685360    -1.0724570     5.0677850
