23
044_Ethene-Pentane_1.60.txyz
C          0.66640        0.18381        0.41974
H          1.22888       -0.32988        1.18626
H          1.22804        0.69721       -0.34761
C         -0.66597        0.18297        0.41961
H         -1.22792       -0.33150        1.18610
H         -1.22818        0.69565       -0.34775
C         -2.53292       -0.53367        6.29909
H         -2.56242       -1.14669        5.39790
H         -2.56906       -1.20789        7.15471
H         -3.43409        0.07734        6.31634
C         -1.27149        0.31900        6.33491
H         -1.27189        0.93910        7.23431
H         -1.26310        1.00591        5.48585
C         -0.00021       -0.51855        6.30797
H         -0.00036       -1.20523        7.15980
H         -0.00007       -1.14613        5.41133
C          1.27101        0.31903        6.33537
H          1.27128        0.93884        7.23486
H          1.26281        1.00611        5.48647
C          2.53246       -0.53369        6.29955
H          2.56208       -1.14655        5.39824
H          3.43364        0.07724        6.31713
H          2.56838       -1.20815        7.15505
