 29
 #Generated by chemFileConvert.py
  C            1.3721910     1.0124770     0.9708250
  H            0.9521760     2.0140500     1.0331170
  H            1.9474220     0.9265160     0.0507180
  H            2.0517020     0.8518250     1.8029520
  C            0.3267370    -0.0776470     0.9881990
  O            0.6188210    -1.2524810     1.1712810
  N           -0.9500290     0.3448870     0.7739150
  H           -1.1046720     1.3220250     0.6061120
  C           -2.0598540    -0.5773690     0.6801530
  H           -1.6693560    -1.5667960     0.8971840
  H           -2.8345920    -0.3313800     1.4036610
  H           -2.4909710    -0.5789250    -0.3199390
  C            2.6756520     0.4732350     5.0289040
  H            2.7924910     1.2276510     4.2501590
  H            2.5895420     0.9981220     5.9805600
  H            3.5877440    -0.1210070     5.0557120
  C            1.4473800    -0.3901520     4.7713530
  H            1.3528110    -1.1356060     5.5644030
  H            1.5638000    -0.9436170     3.8375090
  C            0.1648420     0.4284620     4.7060510
  H            0.0532720     1.0061970     5.6291350
  H            0.2440760     1.1612770     3.8963990
  C           -1.0795140    -0.4218740     4.4891710
  H           -1.1703160    -1.1363600     5.3105890
  H           -0.9517070    -1.0108110     3.5789570
  C           -2.3463530     0.4184180     4.3990570
  H           -2.2794390     1.1254690     3.5712870
  H           -3.2316950    -0.1976000     4.2452240
  H           -2.4967090     0.9946290     5.3122760
