 29
 #Generated by chemFileConvert.py
  C            1.3721910     1.0124770     0.9708250
  H            0.9521760     2.0140500     1.0331170
  H            1.9474220     0.9265160     0.0507180
  H            2.0517020     0.8518250     1.8029520
  C            0.3267370    -0.0776470     0.9881990
  O            0.6188210    -1.2524810     1.1712810
  N           -0.9500290     0.3448870     0.7739150
  H           -1.1046720     1.3220250     0.6061120
  C           -2.0598540    -0.5773690     0.6801530
  H           -1.6693560    -1.5667960     0.8971840
  H           -2.8345920    -0.3313800     1.4036610
  H           -2.4909710    -0.5789250    -0.3199390
  C            2.6649110     0.4657170     4.9030810
  H            2.7817500     1.2201330     4.1243360
  H            2.5788010     0.9906030     5.8547370
  H            3.5770030    -0.1285250     4.9298890
  C            1.4366390    -0.3976700     4.6455300
  H            1.3420700    -1.1431240     5.4385800
  H            1.5530590    -0.9511350     3.7116860
  C            0.1541010     0.4209440     4.5802280
  H            0.0425310     0.9986780     5.5033120
  H            0.2333350     1.1537580     3.7705760
  C           -1.0902550    -0.4293920     4.3633480
  H           -1.1810570    -1.1438780     5.1847650
  H           -0.9624480    -1.0183290     3.4531340
  C           -2.3570940     0.4109000     4.2732340
  H           -2.2901800     1.1179510     3.4454640
  H           -3.2424360    -0.2051180     4.1194010
  H           -2.5074500     0.9871110     5.1864530
