29
046_Peptide-Pentane_1.30.txyz
C          1.37219        1.01248        0.97083
H          0.95218        2.01405        1.03312
H          1.94742        0.92652        0.05072
H          2.05170        0.85183        1.80295
C          0.32674       -0.07765        0.98820
O          0.61882       -1.25248        1.17128
N         -0.95003        0.34489        0.77392
H         -1.10467        1.32203        0.60611
C         -2.05985       -0.57737        0.68015
H         -1.66936       -1.56680        0.89718
H         -2.83459       -0.33138        1.40366
H         -2.49097       -0.57893       -0.31994
C          2.73037        0.51153        5.66986
H          2.84721        1.26595        4.89111
H          2.64426        1.03642        6.62151
H          3.64246       -0.08271        5.69667
C          1.50210       -0.35185        5.41231
H          1.40753       -1.09731        6.20536
H          1.61852       -0.90532        4.47846
C          0.21956        0.46676        5.34701
H          0.10799        1.04449        6.27009
H          0.29879        1.19957        4.53735
C         -1.02480       -0.38358        5.13012
H         -1.11560       -1.09806        5.95154
H         -0.89699       -0.97251        4.21991
C         -2.29164        0.45671        5.04001
H         -2.22472        1.16377        4.21224
H         -3.17698       -0.15930        4.88618
H         -2.44199        1.03293        5.95323
