 24
 #Generated by chemFileConvert.py
  C            0.7291890     1.1131010     0.3267280
  H            1.3032160     2.0142220     0.1591600
  C            1.3750870    -0.1193660     0.4127770
  H            2.4505150    -0.1746240     0.3133070
  C            0.6350400    -1.2805530     0.6293850
  H            1.1363340    -2.2360170     0.7002170
  C           -0.7509860    -1.2096540     0.7578900
  H           -1.3245260    -2.1114130     0.9241990
  C           -1.3970340     0.0226710     0.6730900
  H           -2.4724250     0.0784880     0.7739980
  C           -0.6568970     1.1842960     0.4583390
  H           -1.1578280     2.1405870     0.3950960
  C            0.1345730     0.1184080     3.8844330
  H            0.2566990     0.3438910     2.8340060
  C           -0.9565090    -0.6364910     4.3117690
  H           -1.6770130    -0.9930050     3.5880750
  C           -1.1172090    -0.9306160     5.6647190
  H           -1.9643160    -1.5165850     5.9949670
  C           -0.1853260    -0.4695630     6.5932130
  H           -0.3092200    -0.6975290     7.6432210
  C            0.9062590     0.2855390     6.1679730
  H            1.6293780     0.6433720     6.8883550
  C            1.0650630     0.5790240     4.8144820
  H            1.9123210     1.1650990     4.4844340
