24
047_Benzene-Benzene_TS_1.90.txyz
C          0.72919        1.11310        0.32673
H          1.30322        2.01422        0.15916
C          1.37509       -0.11937        0.41278
H          2.45052       -0.17462        0.31331
C          0.63504       -1.28055        0.62938
H          1.13633       -2.23602        0.70022
C         -0.75099       -1.20965        0.75789
H         -1.32453       -2.11141        0.92420
C         -1.39703        0.02267        0.67309
H         -2.47242        0.07849        0.77400
C         -0.65690        1.18430        0.45834
H         -1.15783        2.14059        0.39510
C          0.53316        0.70244        7.29639
H          0.65529        0.92792        6.24596
C         -0.55792       -0.05246        7.72373
H         -1.27842       -0.40898        7.00003
C         -0.71862       -0.34659        9.07668
H         -1.56573       -0.93256        9.40692
C          0.21326        0.11447       10.00517
H          0.08937       -0.11350       11.05518
C          1.30485        0.86957        9.57993
H          2.02797        1.22740       10.30031
C          1.46365        1.16305        8.22644
H          2.31091        1.74913        7.89639
