 24
 #Generated by chemFileConvert.py
  C            0.7291890     1.1131010     0.3267280
  H            1.3032160     2.0142220     0.1591600
  C            1.3750870    -0.1193660     0.4127770
  H            2.4505150    -0.1746240     0.3133070
  C            0.6350400    -1.2805530     0.6293850
  H            1.1363340    -2.2360170     0.7002170
  C           -0.7509860    -1.2096540     0.7578900
  H           -1.3245260    -2.1114130     0.9241990
  C           -1.3970340     0.0226710     0.6730900
  H           -2.4724250     0.0784880     0.7739980
  C           -0.6568970     1.1842960     0.4583390
  H           -1.1578280     2.1405870     0.3950960
  C            0.1896430     0.1991000     4.3558460
  H            0.3117700     0.4245840     3.3054200
  C           -0.9014380    -0.5557980     4.7831820
  H           -1.6219430    -0.9123120     4.0594880
  C           -1.0621380    -0.8499240     6.1361320
  H           -1.9092460    -1.4358920     6.4663800
  C           -0.1302560    -0.3888700     7.0646260
  H           -0.2541490    -0.6168360     8.1146340
  C            0.9613300     0.3662320     6.6393860
  H            1.6844490     0.7240650     7.3597690
  C            1.1201330     0.6597170     5.2858950
  H            1.9673910     1.2457920     4.9558470
