 24
 #Generated by chemFileConvert.py
  C            0.7291890     1.1131010     0.3267280
  H            1.3032160     2.0142220     0.1591600
  C            1.3750870    -0.1193660     0.4127770
  H            2.4505150    -0.1746240     0.3133070
  C            0.6350400    -1.2805530     0.6293850
  H            1.1363340    -2.2360170     0.7002170
  C           -0.7509860    -1.2096540     0.7578900
  H           -1.3245260    -2.1114130     0.9241990
  C           -1.3970340     0.0226710     0.6730900
  H           -2.4724250     0.0784880     0.7739980
  C           -0.6568970     1.1842960     0.4583390
  H           -1.1578280     2.1405870     0.3950960
  C            0.0330290    -0.0303790     3.0152060
  H            0.1551550     0.1951040     1.9647800
  C           -1.0580530    -0.7852780     3.4425430
  H           -1.7785570    -1.1417920     2.7188480
  C           -1.2187530    -1.0794030     4.7954930
  H           -2.0658600    -1.6653720     5.1257400
  C           -0.2868700    -0.6183500     5.7239870
  H           -0.4107630    -0.8463160     6.7739940
  C            0.8047150     0.1367520     5.2987470
  H            1.5278340     0.4945850     6.0191290
  C            0.9635190     0.4302370     3.9452550
  H            1.8107770     1.0163120     3.6152080
