 24
 #Generated by chemFileConvert.py
  C            0.7291890     1.1131010     0.3267280
  H            1.3032160     2.0142220     0.1591600
  C            1.3750870    -0.1193660     0.4127770
  H            2.4505150    -0.1746240     0.3133070
  C            0.6350400    -1.2805530     0.6293850
  H            1.1363340    -2.2360170     0.7002170
  C           -0.7509860    -1.2096540     0.7578900
  H           -1.3245260    -2.1114130     0.9241990
  C           -1.3970340     0.0226710     0.6730900
  H           -2.4724250     0.0784880     0.7739980
  C           -0.6568970     1.1842960     0.4583390
  H           -1.1578280     2.1405870     0.3950960
  C            0.1532040     0.1457070     4.0439200
  H            0.2753300     0.3711910     2.9934930
  C           -0.9378780    -0.6091910     4.4712560
  H           -1.6583820    -0.9657050     3.7475620
  C           -1.0985780    -0.9033170     5.8242060
  H           -1.9456850    -1.4892850     6.1544540
  C           -0.1666950    -0.4422630     6.7527000
  H           -0.2905880    -0.6702290     7.8027080
  C            0.9248900     0.3128390     6.3274600
  H            1.6480090     0.6706720     7.0478430
  C            1.0836940     0.6063240     4.9739690
  H            1.9309520     1.1923990     4.6439210
