24
047_Benzene-Benzene_TS_1.30.txyz
C          0.72919        1.11310        0.32673
H          1.30322        2.01422        0.15916
C          1.37509       -0.11937        0.41278
H          2.45052       -0.17462        0.31331
C          0.63504       -1.28055        0.62938
H          1.13633       -2.23602        0.70022
C         -0.75099       -1.20965        0.75789
H         -1.32453       -2.11141        0.92420
C         -1.39703        0.02267        0.67309
H         -2.47242        0.07849        0.77400
C         -0.65690        1.18430        0.45834
H         -1.15783        2.14059        0.39510
C          0.27552        0.32493        5.09098
H          0.39765        0.55042        4.04056
C         -0.81556       -0.42996        5.51832
H         -1.53606       -0.78648        4.79462
C         -0.97626       -0.72409        6.87127
H         -1.82337       -1.31006        7.20152
C         -0.04438       -0.26304        7.79976
H         -0.16827       -0.49100        8.84977
C          1.04721        0.49207        7.37452
H          1.77033        0.84990        8.09491
C          1.20601        0.78555        6.02103
H          2.05327        1.37163        5.69098
