 22
 #Generated by chemFileConvert.py
  N            1.3227630    -0.0103760     1.0191840
  C            0.6512860    -1.1489920     0.7968010
  H            1.2004180    -2.0655280     0.9736730
  C           -0.6726810    -1.1947120     0.3666570
  H           -1.1571940    -2.1473210     0.2064640
  C           -1.3471970     0.0031340     0.1521440
  H           -2.3753570     0.0084050    -0.1822930
  C           -0.6645580     1.1940910     0.3790020
  H           -1.1426260     2.1515580     0.2287210
  C            0.6588960     1.1349790     0.8088600
  H            1.2141030     2.0459100     0.9954380
  N            0.4970420     0.0022320     6.6221320
  C            1.3677100    -0.0033810     5.6027190
  H            2.4155670    -0.0021330     5.8770210
  C            0.9943250    -0.0104490     4.2608910
  H            1.7417850    -0.0146130     3.4797910
  C           -0.3617240    -0.0118630     3.9484750
  H           -0.6914530    -0.0173190     2.9181940
  C           -1.2798270    -0.0061480     4.9936450
  H           -2.3442770    -0.0069970     4.8049090
  C           -0.8042230     0.0007700     6.3026040
  H           -1.4964070     0.0053530     7.1357950
