22
048_Pyridine-Pyridine_TS_1.60.txyz
N          1.32276       -0.01038        1.01918
C          0.65129       -1.14899        0.79680
H          1.20042       -2.06553        0.97367
C         -0.67268       -1.19471        0.36666
H         -1.15719       -2.14732        0.20646
C         -1.34720        0.00313        0.15214
H         -2.37536        0.00840       -0.18229
C         -0.66456        1.19409        0.37900
H         -1.14263        2.15156        0.22872
C          0.65890        1.13498        0.80886
H          1.21410        2.04591        0.99544
N         -0.07447       -0.00911        8.55645
C          0.79619       -0.01472        7.53704
H          1.84405       -0.01347        7.81134
C          0.42281       -0.02179        6.19521
H          1.17027       -0.02595        5.41411
C         -0.93324       -0.02320        5.88280
H         -1.26297       -0.02865        4.85252
C         -1.85134       -0.01749        6.92797
H         -2.91579       -0.01833        6.73923
C         -1.37574       -0.01057        8.23692
H         -2.06792       -0.00598        9.07012
