 22
 #Generated by chemFileConvert.py
  N            1.3227630    -0.0103760     1.0191840
  C            0.6512860    -1.1489920     0.7968010
  H            1.2004180    -2.0655280     0.9736730
  C           -0.6726810    -1.1947120     0.3666570
  H           -1.1571940    -2.1473210     0.2064640
  C           -1.3471970     0.0031340     0.1521440
  H           -2.3753570     0.0084050    -0.1822930
  C           -0.6645580     1.1940910     0.3790020
  H           -1.1426260     2.1515580     0.2287210
  C            0.6588960     1.1349790     0.8088600
  H            1.2141030     2.0459100     0.9954380
  N            0.5387810     0.0030590     6.4808650
  C            1.4094490    -0.0025540     5.4614520
  H            2.4573060    -0.0013050     5.7357540
  C            1.0360630    -0.0096210     4.1196240
  H            1.7835240    -0.0137850     3.3385240
  C           -0.3199850    -0.0110350     3.8072080
  H           -0.6497140    -0.0164910     2.7769270
  C           -1.2380890    -0.0053200     4.8523780
  H           -2.3025390    -0.0061700     4.6636420
  C           -0.7624850     0.0015970     6.1613370
  H           -1.4546680     0.0061800     6.9945280
