 22
 #Generated by chemFileConvert.py
  N            1.3227630    -0.0103760     1.0191840
  C            0.6512860    -1.1489920     0.7968010
  H            1.2004180    -2.0655280     0.9736730
  C           -0.6726810    -1.1947120     0.3666570
  H           -1.1571940    -2.1473210     0.2064640
  C           -1.3471970     0.0031340     0.1521440
  H           -2.3753570     0.0084050    -0.1822930
  C           -0.6645580     1.1940910     0.3790020
  H           -1.1426260     2.1515580     0.2287210
  C            0.6588960     1.1349790     0.8088600
  H            1.2141030     2.0459100     0.9954380
  N            0.4558590     0.0014150     6.7615180
  C            1.3265270    -0.0041980     5.7421050
  H            2.3743840    -0.0029490     6.0164080
  C            0.9531410    -0.0112660     4.4002770
  H            1.7006020    -0.0154300     3.6191780
  C           -0.4029070    -0.0126800     4.0878620
  H           -0.7326360    -0.0181350     3.0575800
  C           -1.3210100    -0.0069650     5.1330310
  H           -2.3854600    -0.0078140     4.9442960
  C           -0.8454070    -0.0000470     6.4419900
  H           -1.5375900     0.0045360     7.2751810
