 23
 #Generated by chemFileConvert.py
  C            0.8450770     1.0579190     0.6994550
  H            1.5064060     1.9032220     0.8333820
  C            1.3755090    -0.2174550     0.5111610
  H            2.4471840    -0.3614730     0.5028520
  C            0.5240680    -1.3070440     0.3331920
  H            0.9357270    -2.2960260     0.1849230
  C           -0.8577160    -1.1214630     0.3463840
  H           -1.5183810    -1.9664580     0.2083630
  C           -1.3880460     0.1536340     0.5376130
  H           -2.4597180     0.2974160     0.5500320
  C           -0.5366130     1.2434220     0.7127390
  H           -0.9489240     2.2328060     0.8573660
  N            0.0235390     0.3588230     6.7410950
  C            0.1782230     1.2967850     5.7962180
  H            0.3199940     2.3093110     6.1541200
  C            0.1640140     1.0294950     4.4297190
  H            0.2942540     1.8305210     3.7158330
  C           -0.0203250    -0.2821350     4.0044280
  H           -0.0368910    -0.5252530     2.9510810
  C           -0.1821740    -1.2671690     4.9732880
  H           -0.3287170    -2.3023800     4.6985160
  C           -0.1529710    -0.8998360     6.3163770
  H           -0.2765670    -1.6473500     7.0904780
