 23
 #Generated by chemFileConvert.py
  C            0.8450770     1.0579190     0.6994550
  H            1.5064060     1.9032220     0.8333820
  C            1.3755090    -0.2174550     0.5111610
  H            2.4471840    -0.3614730     0.5028520
  C            0.5240680    -1.3070440     0.3331920
  H            0.9357270    -2.2960260     0.1849230
  C           -0.8577160    -1.1214630     0.3463840
  H           -1.5183810    -1.9664580     0.2083630
  C           -1.3880460     0.1536340     0.5376130
  H           -2.4597180     0.2974160     0.5500320
  C           -0.5366130     1.2434220     0.7127390
  H           -0.9489240     2.2328060     0.8573660
  N            0.0318550     0.4928980     6.0814360
  C            0.1865390     1.4308600     5.1365590
  H            0.3283100     2.4433860     5.4944610
  C            0.1723300     1.1635700     3.7700600
  H            0.3025700     1.9645960     3.0561740
  C           -0.0120090    -0.1480600     3.3447690
  H           -0.0285750    -0.3911780     2.2914210
  C           -0.1738580    -1.1330940     4.3136280
  H           -0.3204010    -2.1683050     4.0388570
  C           -0.1446550    -0.7657610     5.6567180
  H           -0.2682510    -1.5132750     6.4308190
