 20
 #Generated by chemFileConvert.py
  C            0.9640800     0.8750930     0.3780140
  H            1.6598300     1.6999310     0.4460420
  C            1.4310570    -0.4131330     0.1189920
  H            2.4895250    -0.5872090    -0.0170130
  C            0.5341280    -1.4776390     0.0424180
  H            0.8969610    -2.4773880    -0.1520120
  C           -0.8303270    -1.2536040     0.2208560
  H           -1.5257600    -2.0796240     0.1641170
  C           -1.2975870     0.0344130     0.4802430
  H           -2.3543960     0.2080160     0.6285610
  C           -0.4004450     1.0997790     0.5616010
  H           -0.7604550     2.0937690     0.7847570
  C           -0.0743190     0.3395990     3.1198070
  O           -0.5425080     1.3890460     2.7405470
  O            0.3288940    -0.6379640     2.2805220
  H            0.1601890    -0.3120510     1.3791170
  C            0.1356360    -0.0573880     4.5512130
  H           -0.1743310     0.7519490     5.2012020
  H           -0.4404450    -0.9540120     4.7681640
  H            1.1841330    -0.2935200     4.7162320
