 20
 #Generated by chemFileConvert.py
  C            0.9640800     0.8750930     0.3780140
  H            1.6598300     1.6999310     0.4460420
  C            1.4310570    -0.4131330     0.1189920
  H            2.4895250    -0.5872090    -0.0170130
  C            0.5341280    -1.4776390     0.0424180
  H            0.8969610    -2.4773880    -0.1520120
  C           -0.8303270    -1.2536040     0.2208560
  H           -1.5257600    -2.0796240     0.1641170
  C           -1.2975870     0.0344130     0.4802430
  H           -2.3543960     0.2080160     0.6285610
  C           -0.4004450     1.0997790     0.5616010
  H           -0.7604550     2.0937690     0.7847570
  C           -0.1086430     0.5117970     4.5118630
  O           -0.5768330     1.5612440     4.1326030
  O            0.2945690    -0.4657660     3.6725780
  H            0.1258650    -0.1398520     2.7711730
  C            0.1013110     0.1148100     5.9432690
  H           -0.2086550     0.9241470     6.5932580
  H           -0.4747700    -0.7818140     6.1602200
  H            1.1498090    -0.1213220     6.1082880
