20
052_Benzene-AcOH_OH-pi_1.30.txyz
C          0.96408        0.87509        0.37801
H          1.65983        1.69993        0.44604
C          1.43106       -0.41313        0.11899
H          2.48952       -0.58721       -0.01701
C          0.53413       -1.47764        0.04242
H          0.89696       -2.47739       -0.15201
C         -0.83033       -1.25360        0.22086
H         -1.52576       -2.07962        0.16412
C         -1.29759        0.03441        0.48024
H         -2.35440        0.20802        0.62856
C         -0.40044        1.09978        0.56160
H         -0.76045        2.09377        0.78476
C         -0.13620        0.65436        5.70694
O         -0.60439        1.70380        5.32768
O          0.26701       -0.32321        4.86766
H          0.09830        0.00271        3.96625
C          0.07375        0.25737        7.13835
H         -0.23622        1.06671        7.78834
H         -0.50233       -0.63926        7.35530
H          1.12225        0.02124        7.30337
