21
053_Benzene-AcNH2_NH-pi_1.30.txyz
C          0.85556        0.35853        1.04975
H          1.51383        0.90268        1.71277
C          1.34290       -0.67538        0.25116
H          2.39288       -0.93334        0.28196
C          0.47781       -1.37670       -0.58782
H          0.85608       -2.17891       -1.20682
C         -0.87483       -1.04256       -0.63045
H         -1.54541       -1.58570       -1.28242
C         -1.36240       -0.00701        0.16585
H         -2.41157        0.25347        0.13078
C         -0.49844        0.69316        1.00699
H         -0.86611        1.49034        1.63804
C         -0.04679        0.08946        5.53102
O          0.19970        1.13288        4.94378
N         -0.35084       -1.06555        4.87985
H         -0.32564       -1.07256        3.87321
H         -0.50662       -1.92104        5.37555
C         -0.02395       -0.00543        7.03944
H          1.00776        0.07878        7.37451
H         -0.44585       -0.93208        7.42046
H         -0.57341        0.83841        7.44621
