 21
 #Generated by chemFileConvert.py
  C            0.8555610     0.3585320     1.0497540
  H            1.5138260     0.9026800     1.7127660
  C            1.3428970    -0.6753790     0.2511570
  H            2.3928840    -0.9333450     0.2819630
  C            0.4778070    -1.3767010    -0.5878160
  H            0.8560840    -2.1789080    -1.2068240
  C           -0.8748300    -1.0425560    -0.6304520
  H           -1.5454060    -1.5857000    -1.2824160
  C           -1.3623970    -0.0070140     0.1658460
  H           -2.4115710     0.2534670     0.1307790
  C           -0.4984440     0.6931570     1.0069920
  H           -0.8661110     1.4903400     1.6380370
  C            0.0987450     0.5508390     4.7098510
  O            0.3452340     1.5942650     4.1226110
  N           -0.2053020    -0.6041670     4.0586830
  H           -0.1801020    -0.6111830     3.0520470
  H           -0.3610790    -1.4596600     4.5543850
  C            0.1215900     0.4559470     6.2182680
  H            1.1533030     0.5401600     6.5533420
  H           -0.3003140    -0.4706960     6.5992940
  H           -0.4278750     1.2997940     6.6250380
