 21
 #Generated by chemFileConvert.py
  C            0.8555610     0.3585320     1.0497540
  H            1.5138260     0.9026800     1.7127660
  C            1.3428970    -0.6753790     0.2511570
  H            2.3928840    -0.9333450     0.2819630
  C            0.4778070    -1.3767010    -0.5878160
  H            0.8560840    -2.1789080    -1.2068240
  C           -0.8748300    -1.0425560    -0.6304520
  H           -1.5454060    -1.5857000    -1.2824160
  C           -1.3623970    -0.0070140     0.1658460
  H           -2.4115710     0.2534670     0.1307790
  C           -0.4984440     0.6931570     1.0069920
  H           -0.8661110     1.4903400     1.6380370
  C            0.0782930     0.4860010     4.8252480
  O            0.3247820     1.5294280     4.2380090
  N           -0.2257550    -0.6690050     4.1740810
  H           -0.2005540    -0.6760200     3.1674440
  H           -0.3815310    -1.5244970     4.6697830
  C            0.1011370     0.3911100     6.3336660
  H            1.1328510     0.4753220     6.6687400
  H           -0.3207670    -0.5355330     6.7146910
  H           -0.4483270     1.2349560     6.7404360
