 21
 #Generated by chemFileConvert.py
  C            0.8555610     0.3585320     1.0497540
  H            1.5138260     0.9026800     1.7127660
  C            1.3428970    -0.6753790     0.2511570
  H            2.3928840    -0.9333450     0.2819630
  C            0.4778070    -1.3767010    -0.5878160
  H            0.8560840    -2.1789080    -1.2068240
  C           -0.8748300    -1.0425560    -0.6304520
  H           -1.5454060    -1.5857000    -1.2824160
  C           -1.3623970    -0.0070140     0.1658460
  H           -2.4115710     0.2534670     0.1307790
  C           -0.4984440     0.6931570     1.0069920
  H           -0.8661110     1.4903400     1.6380370
  C            0.1608170     0.7476220     4.3596180
  O            0.4073070     1.7910480     3.7723790
  N           -0.1432300    -0.4073850     3.7084510
  H           -0.1180300    -0.4144000     2.7018140
  H           -0.2990060    -1.2628770     4.2041530
  C            0.1836620     0.6527300     5.8680360
  H            1.2153760     0.7369420     6.2031100
  H           -0.2382420    -0.2739130     6.2490620
  H           -0.3658030     1.4965760     6.2748060
