15
054_Benzene-Water_OH-pi_1.90.txyz
C          0.78015       -0.60991       -1.20756
H          0.89619       -1.13764       -2.14414
C          0.47794        0.75099       -1.20789
H          0.35696        1.27817       -2.14405
C          0.32729        1.43187       -0.00000
H          0.09147        2.48714        0.00000
C          0.47794        0.75099        1.20789
H          0.35696        1.27817        2.14405
C          0.78015       -0.60991        1.20756
H          0.89619       -1.13764        2.14414
C          0.93165       -1.28998        0.00000
H          1.16849       -2.34521       -0.00000
O         -5.54897       -0.58413        0.00000
H         -5.38416       -1.52885        0.00000
H         -4.66167       -0.21254        0.00000
