 18
 #Generated by chemFileConvert.py
  C            0.7597490     1.0312750     0.3737720
  H            1.4350160     1.8756640     0.3747050
  C            1.2666180    -0.2673620     0.4212730
  H            2.3349160    -0.4291800     0.4594320
  C            0.3953210    -1.3559910     0.4249050
  H            0.7886620    -2.3624930     0.4630350
  C           -0.9822060    -1.1466540     0.3812700
  H           -1.6576560    -1.9911400     0.3851210
  C           -1.4893460     0.1511500     0.3375720
  H           -2.5579470     0.3137500     0.3077190
  C           -0.6187750     1.2403310     0.3338840
  H           -1.0117620     2.2471070     0.3043690
  O            0.0463110     0.3057910     3.6936890
  H            0.1324120     0.3556640     2.7364960
  C           -0.8498390    -0.7518230     3.9767450
  H           -0.9455600    -0.8085580     5.0576810
  H           -1.8419890    -0.5801260     3.5529540
  H           -0.4833790    -1.7148640     3.6138330
