18
055_Benzene-MeOH_OH-pi_1.90.txyz
C          0.75975        1.03127        0.37377
H          1.43502        1.87566        0.37471
C          1.26662       -0.26736        0.42127
H          2.33492       -0.42918        0.45943
C          0.39532       -1.35599        0.42490
H          0.78866       -2.36249        0.46303
C         -0.98221       -1.14665        0.38127
H         -1.65766       -1.99114        0.38512
C         -1.48935        0.15115        0.33757
H         -2.55795        0.31375        0.30772
C         -0.61877        1.24033        0.33388
H         -1.01176        2.24711        0.30437
O         -0.15504        0.19348        6.13407
H         -0.06894        0.24335        5.17687
C         -1.05119       -0.86413        6.41712
H         -1.14691       -0.92087        7.49806
H         -2.04334       -0.69244        5.99333
H         -0.68473       -1.82718        6.05421
