 18
 #Generated by chemFileConvert.py
  C            0.7597490     1.0312750     0.3737720
  H            1.4350160     1.8756640     0.3747050
  C            1.2666180    -0.2673620     0.4212730
  H            2.3349160    -0.4291800     0.4594320
  C            0.3953210    -1.3559910     0.4249050
  H            0.7886620    -2.3624930     0.4630350
  C           -0.9822060    -1.1466540     0.3812700
  H           -1.6576560    -1.9911400     0.3851210
  C           -1.4893460     0.1511500     0.3375720
  H           -2.5579470     0.3137500     0.3077190
  C           -0.6187750     1.2403310     0.3338840
  H           -1.0117620     2.2471070     0.3043690
  O            0.0571780     0.3118520     3.5619810
  H            0.1432790     0.3617250     2.6047870
  C           -0.8389720    -0.7457620     3.8450360
  H           -0.9346930    -0.8024960     4.9259720
  H           -1.8311220    -0.5740640     3.4212460
  H           -0.4725120    -1.7088030     3.4821240
