 18
 #Generated by chemFileConvert.py
  C            0.7597490     1.0312750     0.3737720
  H            1.4350160     1.8756640     0.3747050
  C            1.2666180    -0.2673620     0.4212730
  H            2.3349160    -0.4291800     0.4594320
  C            0.3953210    -1.3559910     0.4249050
  H            0.7886620    -2.3624930     0.4630350
  C           -0.9822060    -1.1466540     0.3812700
  H           -1.6576560    -1.9911400     0.3851210
  C           -1.4893460     0.1511500     0.3375720
  H           -2.5579470     0.3137500     0.3077190
  C           -0.6187750     1.2403310     0.3338840
  H           -1.0117620     2.2471070     0.3043690
  O            0.1126520     0.3427960     2.8896380
  H            0.1987520     0.3926690     1.9324450
  C           -0.7834990    -0.7148180     3.1726930
  H           -0.8792200    -0.7715530     4.2536290
  H           -1.7756490    -0.5431200     2.7489030
  H           -0.4170390    -1.6778590     2.8097820
