19
056_Benzene-MeNH2_NH-pi_1.90.txyz
C          0.69232        1.08829        0.32484
H          1.28195        1.99195        0.25252
C          1.31819       -0.15687        0.28690
H          2.39314       -0.21948        0.18841
C          0.55802       -1.32195        0.38140
H          1.04392       -2.28757        0.35762
C         -0.82755       -1.24142        0.51168
H         -1.41670       -2.14525        0.58534
C         -1.45341        0.00367        0.54838
H         -2.52823        0.06570        0.64984
C         -0.69346        1.16840        0.45623
H         -1.17874        2.13441        0.48573
N          0.01926       -0.45945        6.46438
H          0.15388       -0.41541        5.46131
H          0.16075        0.48570        6.79686
C         -1.35684       -0.86583        6.74182
H         -1.51472       -0.89438        7.81838
H         -2.12814       -0.22545        6.30170
H         -1.51153       -1.87540        6.36620
