 19
 #Generated by chemFileConvert.py
  C            0.6923150     1.0882920     0.3248410
  H            1.2819490     1.9919470     0.2525160
  C            1.3181870    -0.1568700     0.2868960
  H            2.3931430    -0.2194760     0.1884070
  C            0.5580180    -1.3219500     0.3814000
  H            1.0439190    -2.2875740     0.3576150
  C           -0.8275520    -1.2414220     0.5116850
  H           -1.4167010    -2.1452520     0.5853390
  C           -1.4534110     0.0036710     0.5483810
  H           -2.5282330     0.0657030     0.6498430
  C           -0.6934610     1.1684010     0.4562290
  H           -1.1787350     2.1344100     0.4857270
  N            0.2599190    -0.2367330     4.0131660
  H            0.3945380    -0.1926930     3.0100950
  H            0.4014120     0.7084140     4.3456390
  C           -1.1161800    -0.6431160     4.2906020
  H           -1.2740570    -0.6716640     5.3671580
  H           -1.8874820    -0.0027360     3.8504830
  H           -1.2708720    -1.6526840     3.9149810
