 19
 #Generated by chemFileConvert.py
  C            0.6923150     1.0882920     0.3248410
  H            1.2819490     1.9919470     0.2525160
  C            1.3181870    -0.1568700     0.2868960
  H            2.3931430    -0.2194760     0.1884070
  C            0.5580180    -1.3219500     0.3814000
  H            1.0439190    -2.2875740     0.3576150
  C           -0.8275520    -1.2414220     0.5116850
  H           -1.4167010    -2.1452520     0.5853390
  C           -1.4534110     0.0036710     0.5483810
  H           -2.5282330     0.0657030     0.6498430
  C           -0.6934610     1.1684010     0.4562290
  H           -1.1787350     2.1344100     0.4857270
  N            0.3300090    -0.1718710     3.2992860
  H            0.4646270    -0.1278300     2.2962150
  H            0.4715010     0.7732760     3.6317580
  C           -1.0460910    -0.5782540     3.5767220
  H           -1.2039670    -0.6068010     4.6532780
  H           -1.8173930     0.0621270     3.1366030
  H           -1.2007830    -1.5878220     3.2011000
