19
056_Benzene-MeNH2_NH-pi_1.60.txyz
C          0.69232        1.08829        0.32484
H          1.28195        1.99195        0.25252
C          1.31819       -0.15687        0.28690
H          2.39314       -0.21948        0.18841
C          0.55802       -1.32195        0.38140
H          1.04392       -2.28757        0.35762
C         -0.82755       -1.24142        0.51168
H         -1.41670       -2.14525        0.58534
C         -1.45341        0.00367        0.54838
H         -2.52823        0.06570        0.64984
C         -0.69346        1.16840        0.45623
H         -1.17874        2.13441        0.48573
N          0.10388       -0.38114        5.60248
H          0.23850       -0.33710        4.59941
H          0.24537        0.56401        5.93495
C         -1.27222       -0.78752        5.87992
H         -1.43009       -0.81607        6.95647
H         -2.04352       -0.14714        5.43980
H         -1.42691       -1.79709        5.50429
