 24
 #Generated by chemFileConvert.py
  C            0.4087800     1.0510250     0.3755360
  H            1.0119390     1.9485460     0.3680780
  C            1.0191680    -0.1997700     0.2890530
  H            2.0955710    -0.2718330     0.2171910
  C            0.2417230    -1.3568830     0.2966900
  H            0.7152160    -2.3265890     0.2280720
  C           -1.1461800    -1.2642580     0.3939020
  H           -1.7491820    -2.1619270     0.3994100
  C           -1.7572780    -0.0139600     0.4829520
  H           -2.8335140     0.0582440     0.5590390
  C           -0.9796860     1.1442070     0.4722840
  H           -1.4540510     2.1140010     0.5371360
  C            0.2332500     1.9280560     3.5894740
  H           -0.1248950     2.0937870     2.5761810
  H            1.2578330     2.2847660     3.6709150
  H           -0.3708470     2.5016920     4.2878260
  C            0.1964040     0.4748930     4.0051830
  O            0.4810320     0.1225320     5.1437210
  N           -0.1759920    -0.3908240     3.0259420
  H           -0.3371200    -0.0328330     2.0998730
  C           -0.2127850    -1.8177030     3.2440290
  H           -0.1346970    -1.9846110     4.3140250
  H           -1.1480250    -2.2360540     2.8772900
  H            0.6163420    -2.3215760     2.7466910
