 24
 #Generated by chemFileConvert.py
  C            0.4087800     1.0510250     0.3755360
  H            1.0119390     1.9485460     0.3680780
  C            1.0191680    -0.1997700     0.2890530
  H            2.0955710    -0.2718330     0.2171910
  C            0.2417230    -1.3568830     0.2966900
  H            0.7152160    -2.3265890     0.2280720
  C           -1.1461800    -1.2642580     0.3939020
  H           -1.7491820    -2.1619270     0.3994100
  C           -1.7572780    -0.0139600     0.4829520
  H           -2.8335140     0.0582440     0.5590390
  C           -0.9796860     1.1442070     0.4722840
  H           -1.4540510     2.1140010     0.5371360
  C            0.2424550     1.9494120     4.0858800
  H           -0.1156900     2.1151420     3.0725870
  H            1.2670390     2.3061210     4.1673220
  H           -0.3616420     2.5230470     4.7842330
  C            0.2056090     0.4962490     4.5015890
  O            0.4902370     0.1438870     5.6401270
  N           -0.1667860    -0.3694680     3.5223480
  H           -0.3279140    -0.0114770     2.5962790
  C           -0.2035790    -1.7963470     3.7404350
  H           -0.1254920    -1.9632550     4.8104310
  H           -1.1388200    -2.2146980     3.3736970
  H            0.6255470    -2.3002200     3.2430970
