 24
 #Generated by chemFileConvert.py
  C            0.4087800     1.0510250     0.3755360
  H            1.0119390     1.9485460     0.3680780
  C            1.0191680    -0.1997700     0.2890530
  H            2.0955710    -0.2718330     0.2171910
  C            0.2417230    -1.3568830     0.2966900
  H            0.7152160    -2.3265890     0.2280720
  C           -1.1461800    -1.2642580     0.3939020
  H           -1.7491820    -2.1619270     0.3994100
  C           -1.7572780    -0.0139600     0.4829520
  H           -2.8335140     0.0582440     0.5590390
  C           -0.9796860     1.1442070     0.4722840
  H           -1.4540510     2.1140010     0.5371360
  C            0.2453550     1.9561400     4.2422730
  H           -0.1127900     2.1218710     3.2289800
  H            1.2699390     2.3128490     4.3237150
  H           -0.3587410     2.5297760     4.9406260
  C            0.2085090     0.5029770     4.6579820
  O            0.4931380     0.1506150     5.7965200
  N           -0.1638860    -0.3627400     3.6787410
  H           -0.3250140    -0.0047490     2.7526720
  C           -0.2006790    -1.7896190     3.8968280
  H           -0.1225910    -1.9565270     4.9668240
  H           -1.1359200    -2.2079700     3.5300900
  H            0.6284470    -2.2934920     3.3994900
