22
058_Pyridine-Pyridine_CH-N_1.60.txyz
N         -0.94121        0.79004        0.01172
C         -0.92275       -0.55238        0.03538
H          0.05724       -1.01559        0.05135
C         -2.07652       -1.33302        0.03929
H         -1.99653       -2.41059        0.05888
C         -3.31631       -0.70334        0.01760
H         -4.23158       -1.27908        0.01979
C         -3.34890        0.68702       -0.00709
H         -4.28544        1.22611       -0.02466
C         -2.14310        1.38263       -0.00889
H         -2.13810        2.46565       -0.02778
N          4.07971       -0.90906        0.03779
C          5.28149       -1.50223        0.03987
H          5.27626       -2.58520        0.06176
C          6.48742       -0.80727        0.01587
H          7.42386       -1.34681        0.01896
C          6.45511        0.58303       -0.01188
H          7.37048        1.15828       -0.03106
C          5.21543        1.21332       -0.01436
H          5.13565        2.29088       -0.03545
C          4.06151        0.43331        0.01084
H          3.08160        0.89697        0.00917
