 22
 #Generated by chemFileConvert.py
  N           -0.9412110     0.7900410     0.0117190
  C           -0.9227550    -0.5523780     0.0353790
  H            0.0572410    -1.0155880     0.0513550
  C           -2.0765190    -1.3330180     0.0392900
  H           -1.9965290    -2.4105860     0.0588770
  C           -3.3163130    -0.7033400     0.0175990
  H           -4.2315750    -1.2790840     0.0197940
  C           -3.3488950     0.6870190    -0.0070860
  H           -4.2854440     1.2261050    -0.0246590
  C           -2.1431040     1.3826340    -0.0088900
  H           -2.1381000     2.4656530    -0.0277830
  N            2.7162460    -0.9451690     0.0422720
  C            3.9180250    -1.5383450     0.0443520
  H            3.9128010    -2.6213070     0.0662410
  C            5.1239610    -0.8433860     0.0203500
  H            6.0603990    -1.3829210     0.0234440
  C            5.0916430     0.5469180    -0.0073960
  H            6.0070180     1.1221690    -0.0265780
  C            3.8519630     1.1772040    -0.0098730
  H            3.7721900     2.2547630    -0.0309620
  C            2.6980490     0.3971950     0.0153200
  H            1.7181390     0.8608570     0.0136570
