 25
 #Generated by chemFileConvert.py
  C           -2.2753450    -0.1350750     0.8313340
  H           -2.4907180    -0.7279270    -0.0575660
  H           -2.2263240    -0.8184460     1.6788230
  H           -3.1120260     0.5449430     0.9874000
  C           -0.9616980     0.6192780     0.6693990
  H           -0.7886990     1.2504320     1.5447030
  H           -1.0261770     1.2954450    -0.1864580
  C            0.2265020    -0.3147100     0.4799860
  H            0.3094440    -0.9751390     1.3480380
  H            0.0391510    -0.9659990    -0.3787900
  C            1.5430020     0.4211750     0.2690000
  H            1.7116390     1.1077720     1.1024470
  H            1.4660950     1.0437430    -0.6252940
  C            2.7275760    -0.5268610     0.1374590
  H            2.5887420    -1.2032140    -0.7057570
  H            3.6615010     0.0116930    -0.0159690
  H            2.8351940    -1.1374100     1.0340750
  C           -0.4754000    -0.2857460     4.0794600
  O           -0.8980140    -1.4009260     3.8823130
  O           -1.2890930     0.7732190     4.3120490
  H           -2.1898550     0.4188390     4.2715140
  C            0.9648670     0.1239200     4.0966650
  H            1.5906900    -0.7462610     3.9385100
  H            1.1409040     0.8581940     3.3135410
  H            1.2021780     0.5932210     5.0484680
