25
061_Pentane-AcOH_1.30.txyz
C         -2.27535       -0.13508        0.83133
H         -2.49072       -0.72793       -0.05757
H         -2.22632       -0.81845        1.67882
H         -3.11203        0.54494        0.98740
C         -0.96170        0.61928        0.66940
H         -0.78870        1.25043        1.54470
H         -1.02618        1.29544       -0.18646
C          0.22650       -0.31471        0.47999
H          0.30944       -0.97514        1.34804
H          0.03915       -0.96600       -0.37879
C          1.54300        0.42118        0.26900
H          1.71164        1.10777        1.10245
H          1.46609        1.04374       -0.62529
C          2.72758       -0.52686        0.13746
H          2.58874       -1.20321       -0.70576
H          3.66150        0.01169       -0.01597
H          2.83519       -1.13741        1.03408
C         -0.63814       -0.32796        4.91280
O         -1.06075       -1.44314        4.71566
O         -1.45183        0.73100        5.14539
H         -2.35259        0.37662        5.10486
C          0.80213        0.08170        4.93001
H          1.42795       -0.78848        4.77186
H          0.97817        0.81598        4.14689
H          1.03944        0.55101        5.88181
