26
062_Pentane-AcNH2_1.30.txyz
C         -2.58778       -0.32311        0.46946
H         -2.61039       -0.87637       -0.46962
H         -2.65974       -1.05189        1.27771
H         -3.47603        0.30562        0.50896
C         -1.30956        0.49739        0.58506
H         -1.31725        1.08326        1.50634
H         -1.26238        1.21557       -0.23678
C         -0.05683       -0.36826        0.55844
H         -0.08618       -1.07336        1.39587
H         -0.05381       -0.97684       -0.35147
C          1.23160        0.44007        0.63203
H          1.21328        1.05356        1.53459
H          1.26630        1.13138       -0.21311
C          2.47257       -0.44314        0.61922
H          2.52072       -1.03526       -0.29490
H          3.38773        0.14409        0.68391
H          2.45930       -1.13936        1.45862
C          0.06092        0.24137        4.99893
O          0.08784        1.42644        4.70709
N          1.19351       -0.51051        5.10175
H          2.06445       -0.08793        4.83309
H          1.15457       -1.50239        5.23318
C         -1.22930       -0.49757        5.26339
H         -1.08205       -1.45829        5.75051
H         -1.73552       -0.65588        4.31257
H         -1.86724        0.12967        5.87866
