26
062_Pentane-AcNH2_1.90.txyz
C         -2.58778       -0.32311        0.46946
H         -2.61039       -0.87637       -0.46962
H         -2.65974       -1.05189        1.27771
H         -3.47603        0.30562        0.50896
C         -1.30956        0.49739        0.58506
H         -1.31725        1.08326        1.50634
H         -1.26238        1.21557       -0.23678
C         -0.05683       -0.36826        0.55844
H         -0.08618       -1.07336        1.39587
H         -0.05381       -0.97684       -0.35147
C          1.23160        0.44007        0.63203
H          1.21328        1.05356        1.53459
H          1.26630        1.13138       -0.21311
C          2.47257       -0.44314        0.61922
H          2.52072       -1.03526       -0.29490
H          3.38773        0.14409        0.68391
H          2.45930       -1.13936        1.45862
C          0.09646        0.31737        6.67027
O          0.12337        1.50245        6.37843
N          1.22904       -0.43451        6.77309
H          2.09998       -0.01193        6.50443
H          1.19010       -1.42639        6.90452
C         -1.19376       -0.42157        6.93473
H         -1.04651       -1.38229        7.42185
H         -1.69999       -0.57988        5.98391
H         -1.83170        0.20567        7.55000
