 26
 #Generated by chemFileConvert.py
  C           -2.5877760    -0.3231060     0.4694580
  H           -2.6103890    -0.8763660    -0.4696190
  H           -2.6597440    -1.0518870     1.2777140
  H           -3.4760350     0.3056250     0.5089610
  C           -1.3095600     0.4973940     0.5850630
  H           -1.3172510     1.0832620     1.5063410
  H           -1.2623770     1.2155740    -0.2367760
  C           -0.0568300    -0.3682600     0.5584400
  H           -0.0861750    -1.0733590     1.3958750
  H           -0.0538090    -0.9768430    -0.3514740
  C            1.2315960     0.4400660     0.6320320
  H            1.2132830     1.0535620     1.5345930
  H            1.2662970     1.1313770    -0.2131060
  C            2.4725750    -0.4431440     0.6192210
  H            2.5207190    -1.0352630    -0.2948970
  H            3.3877340     0.1440900     0.6839090
  H            2.4592970    -1.1393640     1.4586180
  C            0.0379880     0.1923140     3.9201720
  O            0.0649000     1.3773870     3.6283310
  N            1.1705680    -0.5595640     4.0229920
  H            2.0415080    -0.1369830     3.7543290
  H            1.1316300    -1.5514500     4.1544150
  C           -1.2522330    -0.5466240     4.1846260
  H           -1.1049830    -1.5073450     4.6717500
  H           -1.7584610    -0.7049320     3.2338120
  H           -1.8901770     0.0806130     4.7998970
