 20
 #Generated by chemFileConvert.py
  C            0.6067850     1.3304220     0.3164350
  H            1.2464980     2.2022640     0.3303520
  C            1.1180850     0.0872490     0.6851170
  H            2.1500580    -0.0038870     0.9937580
  C            0.2929020    -1.0360870     0.6691070
  H            0.6884970    -2.0009610     0.9553780
  C           -1.0428320    -0.9167110     0.2881900
  H           -1.6827100    -1.7884880     0.2793490
  C           -1.5535880     0.3273490    -0.0799430
  H           -2.5892350     0.4202890    -0.3773460
  C           -0.7280420     1.4508430    -0.0668480
  H           -1.1236240     2.4156590    -0.3538610
  C            0.3842360    -0.2206850     4.3320000
  O            1.5797290    -0.0567350     4.4085160
  O           -0.1952650    -1.4320900     4.5314380
  H            0.5391860    -2.0331990     4.7244760
  C           -0.6376480     0.8232460     4.0113190
  H           -0.1593530     1.7941920     3.9644960
  H           -1.0904480     0.5900500     3.0486110
  H           -1.4224990     0.8177100     4.7638180
