 20
 #Generated by chemFileConvert.py
  C            0.6067850     1.3304220     0.3164350
  H            1.2464980     2.2022640     0.3303520
  C            1.1180850     0.0872490     0.6851170
  H            2.1500580    -0.0038870     0.9937580
  C            0.2929020    -1.0360870     0.6691070
  H            0.6884970    -2.0009610     0.9553780
  C           -1.0428320    -0.9167110     0.2881900
  H           -1.6827100    -1.7884880     0.2793490
  C           -1.5535880     0.3273490    -0.0799430
  H           -2.5892350     0.4202890    -0.3773460
  C           -0.7280420     1.4508430    -0.0668480
  H           -1.1236240     2.4156590    -0.3538610
  C            0.5223780    -0.4233970     3.1115090
  O            1.7178710    -0.2594460     3.1880250
  O           -0.0571240    -1.6348020     3.3109480
  H            0.6773270    -2.2359100     3.5039860
  C           -0.4995060     0.6205350     2.7908280
  H           -0.0212120     1.5914810     2.7440050
  H           -0.9523060     0.3873390     1.8281200
  H           -1.2843570     0.6149980     3.5433280
