 20
 #Generated by chemFileConvert.py
  C            0.6067850     1.3304220     0.3164350
  H            1.2464980     2.2022640     0.3303520
  C            1.1180850     0.0872490     0.6851170
  H            2.1500580    -0.0038870     0.9937580
  C            0.2929020    -1.0360870     0.6691070
  H            0.6884970    -2.0009610     0.9553780
  C           -1.0428320    -0.9167110     0.2881900
  H           -1.6827100    -1.7884880     0.2793490
  C           -1.5535880     0.3273490    -0.0799430
  H           -2.5892350     0.4202890    -0.3773460
  C           -0.7280420     1.4508430    -0.0668480
  H           -1.1236240     2.4156590    -0.3538610
  C            0.4182210    -0.2705540     4.0317470
  O            1.6137130    -0.1066040     4.1082630
  O           -0.1612810    -1.4819590     4.2311850
  H            0.5731700    -2.0830680     4.4242240
  C           -0.6036640     0.7733770     3.7110660
  H           -0.1253690     1.7443230     3.6642430
  H           -1.0564640     0.5401810     2.7483580
  H           -1.3885150     0.7678410     4.4635650
