 20
 #Generated by chemFileConvert.py
  C            0.6067850     1.3304220     0.3164350
  H            1.2464980     2.2022640     0.3303520
  C            1.1180850     0.0872490     0.6851170
  H            2.1500580    -0.0038870     0.9937580
  C            0.2929020    -1.0360870     0.6691070
  H            0.6884970    -2.0009610     0.9553780
  C           -1.0428320    -0.9167110     0.2881900
  H           -1.6827100    -1.7884880     0.2793490
  C           -1.5535880     0.3273490    -0.0799430
  H           -2.5892350     0.4202890    -0.3773460
  C           -0.7280420     1.4508430    -0.0668480
  H           -1.1236240     2.4156590    -0.3538610
  C            0.4878290    -0.3726980     3.4167560
  O            1.6833210    -0.2087470     3.4932720
  O           -0.0916730    -1.5841030     3.6161940
  H            0.6427780    -2.1852120     3.8092320
  C           -0.5340560     0.6712330     3.0960750
  H           -0.0557610     1.6421800     3.0492520
  H           -0.9868560     0.4380370     2.1333670
  H           -1.3189070     0.6656970     3.8485740
