18
064_Peptide-Ethene_1.30.txyz
C          1.62972        0.50301        0.27011
H          1.64157        1.45924       -0.24808
H          2.31532       -0.18355       -0.21759
H          1.96975        0.64936        1.29398
C          0.26183       -0.13286        0.31456
O          0.09925       -1.30962        0.61184
N         -0.77350        0.70251        0.02208
H         -0.56901        1.66656       -0.16581
C         -2.15001        0.26597        0.09505
H         -2.14474       -0.81941        0.10091
H         -2.64054        0.61582        1.00360
H         -2.70774        0.62075       -0.76826
C          0.07676        0.51043        4.58636
H          0.07187        1.25260        5.37224
H         -0.57178        0.67820        3.73768
C          0.84527       -0.57653        4.65617
H          1.49057       -0.74836        5.50630
H          0.84015       -1.31174        3.86386
