 18
 #Generated by chemFileConvert.py
  C            1.6297150     0.5030130     0.2701120
  H            1.6415730     1.4592380    -0.2480830
  H            2.3153190    -0.1835550    -0.2175860
  H            1.9697460     0.6493600     1.2939810
  C            0.2618280    -0.1328610     0.3145620
  O            0.0992530    -1.3096160     0.6118400
  N           -0.7735020     0.7025120     0.0220760
  H           -0.5690110     1.6665570    -0.1658140
  C           -2.1500120     0.2659690     0.0950530
  H           -2.1447380    -0.8194070     0.1009120
  H           -2.6405430     0.6158200     1.0036040
  H           -2.7077440     0.6207510    -0.7682610
  C           -0.1548120     0.5247350     3.0550600
  H           -0.1596940     1.2669090     3.8409420
  H           -0.8033450     0.6925040     2.2063760
  C            0.6136980    -0.5622270     3.1248690
  H            1.2590030    -0.7340520     3.9749970
  H            0.6085860    -1.2974270     2.3325600
