 18
 #Generated by chemFileConvert.py
  C            1.6297150     0.5030130     0.2701120
  H            1.6415730     1.4592380    -0.2480830
  H            2.3153190    -0.1835550    -0.2175860
  H            1.9697460     0.6493600     1.2939810
  C            0.2618280    -0.1328610     0.3145620
  O            0.0992530    -1.3096160     0.6118400
  N           -0.7735020     0.7025120     0.0220760
  H           -0.5690110     1.6665570    -0.1658140
  C           -2.1500120     0.2659690     0.0950530
  H           -2.1447380    -0.8194070     0.1009120
  H           -2.6405430     0.6158200     1.0036040
  H           -2.7077440     0.6207510    -0.7682610
  C           -0.0775690     0.5199630     3.5658490
  H           -0.0824500     1.2621370     4.3517320
  H           -0.7261010     0.6877310     2.7171660
  C            0.6909420    -0.5669990     3.6356590
  H            1.3362470    -0.7388250     4.4857870
  H            0.6858300    -1.3021990     2.8433500
