18
066_MeNH2-Pyridine_1.90.txyz
N         -0.54106        0.02958       -0.20899
H          0.05555       -0.78612       -0.13029
H         -1.46967       -0.27471        0.05314
C         -0.07880        1.04239        0.73846
H         -0.72015        1.91941        0.67198
H         -0.05076        0.72382        1.78551
H          0.92643        1.35660        0.46200
N          4.43152       -1.68700        0.17680
C          4.76996       -0.87466       -0.83492
H          4.22729       -1.01920       -1.76030
C          5.74129        0.11747       -0.73455
H          5.96614        0.74182       -1.58740
C          6.40212        0.28702        0.47772
H          7.15998        1.04925        0.59410
C          6.06199       -0.54795        1.53684
H          6.54458       -0.45748        2.49954
C          5.07821       -1.51273        1.33766
H          4.79213       -2.17648        2.14427
