 18
 #Generated by chemFileConvert.py
  N           -0.5410590     0.0295760    -0.2089950
  H            0.0555530    -0.7861180    -0.1302930
  H           -1.4696690    -0.2747080     0.0531430
  C           -0.0787990     1.0423900     0.7384590
  H           -0.7201530     1.9194140     0.6719800
  H           -0.0507580     0.7238230     1.7855150
  H            0.9264310     1.3566040     0.4619990
  N            2.5890480    -1.3076910     0.0475010
  C            2.9274840    -0.4953470    -0.9642120
  H            2.3848170    -0.6398850    -1.8895930
  C            3.8988130     0.4967870    -0.8638450
  H            4.1236660     1.1211270    -1.7166960
  C            4.5596530     0.6663280     0.3484200
  H            5.3175070     1.4285660     0.4648040
  C            4.2195200    -0.1686340     1.4075430
  H            4.7021090    -0.0781720     2.3702430
  C            3.2357390    -1.1334230     1.2083590
  H            2.9496540    -1.7971710     2.0149700
