 18
 #Generated by chemFileConvert.py
  N           -0.5410590     0.0295760    -0.2089950
  H            0.0555530    -0.7861180    -0.1302930
  H           -1.4696690    -0.2747080     0.0531430
  C           -0.0787990     1.0423900     0.7384590
  H           -0.7201530     1.9194140     0.6719800
  H           -0.0507580     0.7238230     1.7855150
  H            0.9264310     1.3566040     0.4619990
  N            2.2435840    -1.2365700     0.0232570
  C            2.5820210    -0.4242260    -0.9884560
  H            2.0393530    -0.5687640    -1.9138370
  C            3.5533500     0.5679080    -0.8880890
  H            3.7782020     1.1922480    -1.7409390
  C            4.2141900     0.7374490     0.3241760
  H            4.9720440     1.4996870     0.4405600
  C            3.8740570    -0.0975130     1.3832990
  H            4.3566460    -0.0070510     2.3460000
  C            2.8902760    -1.0623020     1.1841150
  H            2.6041910    -1.7260500     1.9907260
