 18
 #Generated by chemFileConvert.py
  N           -0.5410590     0.0295760    -0.2089950
  H            0.0555530    -0.7861180    -0.1302930
  H           -1.4696690    -0.2747080     0.0531430
  C           -0.0787990     1.0423900     0.7384590
  H           -0.7201530     1.9194140     0.6719800
  H           -0.0507580     0.7238230     1.7855150
  H            0.9264310     1.3566040     0.4619990
  N            2.1284300    -1.2128630     0.0151760
  C            2.4668660    -0.4005190    -0.9965370
  H            1.9241990    -0.5450570    -1.9219180
  C            3.4381960     0.5916150    -0.8961700
  H            3.6630480     1.2159550    -1.7490200
  C            4.0990360     0.7611560     0.3160950
  H            4.8568900     1.5233940     0.4324790
  C            3.7589030    -0.0738060     1.3752180
  H            4.2414910     0.0166560     2.3379180
  C            2.7751210    -1.0385950     1.1760340
  H            2.4890370    -1.7023430     1.9826450
