9
067_Water-CH3SH_1.30.txyz
C          1.17559       -0.14580        0.23161
S         -0.14776        0.40810       -0.88436
H         -0.44220        1.53565       -0.23101
H          0.79145       -0.32797        1.22966
H          1.54217       -1.08188       -0.17948
H          1.98825        0.57253        0.25218
O         -2.24091       -1.80541        1.99561
H         -2.15092       -1.36669        1.14146
H         -3.12456       -2.17653        1.97108
