  9
 #Generated by chemFileConvert.py
  C            1.1755930    -0.1458000     0.2316120
  S           -0.1477630     0.4081050    -0.8843620
  H           -0.4421970     1.5356460    -0.2310110
  H            0.7914460    -0.3279690     1.2296560
  H            1.5421700    -1.0818780    -0.1794790
  H            1.9882480     0.5725290     0.2521800
  O           -1.7463270    -1.4759360     1.6592650
  H           -1.6563400    -1.0372200     0.8051220
  H           -2.6299820    -1.8470600     1.6347400
