  9
 #Generated by chemFileConvert.py
  C           -3.1102080     1.1449770    -0.6207280
  S           -2.7077030    -0.5833580    -0.2389590
  H           -1.3794220    -0.4245930    -0.2399370
  H           -2.7047400     1.4387070    -1.5836870
  H           -2.7481340     1.8125740     0.1546350
  H           -4.1938590     1.2103140    -0.6618300
  O            0.8245500     0.2409410    -0.3280330
  H            1.4186770    -0.0499530    -1.0230970
  H            1.3818410     0.2673920     0.4526370
