 12
 #Generated by chemFileConvert.py
  C            0.7948210    -0.0027360    -0.4136000
  S            0.7802790     1.8084980    -0.2820150
  H            1.1986090     1.8743000     0.9851210
  H            0.0538160    -0.4488100     0.2435360
  H            0.5412540    -0.2325420    -1.4449730
  H            1.7824700    -0.4000990    -0.2035800
  C           -2.4009550     0.5405960    -0.7917360
  S           -2.0647450     0.6384230     0.9888650
  H           -1.0532770     1.5085510     0.8834000
  H           -1.5379380     0.1669290    -1.3346090
  H           -2.6992200     1.5061860    -1.1870600
  H           -3.2226500    -0.1595270    -0.9140890
