 12
 #Generated by chemFileConvert.py
  C            0.7948210    -0.0027360    -0.4136000
  S            0.7802790     1.8084980    -0.2820150
  H            1.1986090     1.8743000     0.9851210
  H            0.0538160    -0.4488100     0.2435360
  H            0.5412540    -0.2325420    -1.4449730
  H            1.7824700    -0.4000990    -0.2035800
  C           -2.1192950     0.5976960    -0.8593920
  S           -1.7830850     0.6955230     0.9212090
  H           -0.7716170     1.5656510     0.8157440
  H           -1.2562780     0.2240290    -1.4022650
  H           -2.4175600     1.5632860    -1.2547160
  H           -2.9409900    -0.1024270    -0.9817450
