 12
 #Generated by chemFileConvert.py
  C            0.7948210    -0.0027360    -0.4136000
  S            0.7802790     1.8084980    -0.2820150
  H            1.1986090     1.8743000     0.9851210
  H            0.0538160    -0.4488100     0.2435360
  H            0.5412540    -0.2325420    -1.4449730
  H            1.7824700    -0.4000990    -0.2035800
  C           -3.0411990     0.4108010    -0.6379460
  S           -2.7049890     0.5086280     1.1426550
  H           -1.6935210     1.3787560     1.0371900
  H           -2.1781820     0.0371340    -1.1808190
  H           -3.3394640     1.3763910    -1.0332700
  H           -3.8628940    -0.2893220    -0.7602990
