 12
 #Generated by chemFileConvert.py
  C            0.7948210    -0.0027360    -0.4136000
  S            0.7802790     1.8084980    -0.2820150
  H            1.1986090     1.8743000     0.9851210
  H            0.0538160    -0.4488100     0.2435360
  H            0.5412540    -0.2325420    -1.4449730
  H            1.7824700    -0.4000990    -0.2035800
  C           -2.8106840     0.4575330    -0.6933170
  S           -2.4744740     0.5553600     1.0872840
  H           -1.4630060     1.4254880     0.9818190
  H           -1.9476670     0.0838660    -1.2361900
  H           -3.1089490     1.4231230    -1.0886410
  H           -3.6323790    -0.2425900    -0.8156700
