 12
 #Generated by chemFileConvert.py
  C            0.7948210    -0.0027360    -0.4136000
  S            0.7802790     1.8084980    -0.2820150
  H            1.1986090     1.8743000     0.9851210
  H            0.0538160    -0.4488100     0.2435360
  H            0.5412540    -0.2325420    -1.4449730
  H            1.7824700    -0.4000990    -0.2035800
  C           -3.2547870     0.3675010    -0.5866410
  S           -2.9185770     0.4653280     1.1939600
  H           -1.9071090     1.3354560     1.0884950
  H           -2.3917700    -0.0061660    -1.1295140
  H           -3.5530520     1.3330910    -0.9819650
  H           -4.0764820    -0.3326220    -0.7089940
