 12
 #Generated by chemFileConvert.py
  C            0.7948210    -0.0027360    -0.4136000
  S            0.7802790     1.8084980    -0.2820150
  H            1.1986090     1.8743000     0.9851210
  H            0.0538160    -0.4488100     0.2435360
  H            0.5412540    -0.2325420    -1.4449730
  H            1.7824700    -0.4000990    -0.2035800
  C           -2.6753890     0.4849610    -0.7258150
  S           -2.3391790     0.5827880     1.0547860
  H           -1.3277110     1.4529160     0.9493210
  H           -1.8123720     0.1112940    -1.2686880
  H           -2.9736540     1.4505510    -1.1211390
  H           -3.4970840    -0.2151620    -0.8481680
