13
070_Water-DMSO_1.90.txyz
C         -3.54678       -0.48193        0.59152
O         -1.62766        0.15805       -1.13241
S         -2.26392        0.69108        0.11512
C         -1.15293        0.29844        1.47899
H         -3.95958       -0.19398        1.55557
H         -4.31299       -0.43887       -0.17806
H         -3.10370       -1.47572        0.61660
H         -1.62758        0.56620        2.42011
H         -0.91634       -0.76266        1.42750
H         -0.25077        0.88538        1.32791
O         -4.99218        4.60709        4.03082
H         -4.81864        5.03392        3.18752
H         -5.41031        5.29276        4.55586
