 13
 #Generated by chemFileConvert.py
  C           -3.5467760    -0.4819310     0.5915200
  O           -1.6276610     0.1580460    -1.1324060
  S           -2.2639250     0.6910770     0.1151190
  C           -1.1529260     0.2984410     1.4789870
  H           -3.9595760    -0.1939850     1.5555670
  H           -4.3129890    -0.4388730    -0.1780640
  H           -3.1036950    -1.4757200     0.6166030
  H           -1.6275790     0.5662040     2.4201080
  H           -0.9163380    -0.7626630     1.4274980
  H           -0.2507730     0.8853770     1.3279120
  O           -3.7033930     2.2908460     2.5911350
  H           -3.5298500     2.7176730     1.7478410
  H           -4.1215190     2.9765090     3.1161800
