13
070_Water-DMSO_1.60.txyz
C         -3.54678       -0.48193        0.59152
O         -1.62766        0.15805       -1.13241
S         -2.26392        0.69108        0.11512
C         -1.15293        0.29844        1.47899
H         -3.95958       -0.19398        1.55557
H         -4.31299       -0.43887       -0.17806
H         -3.10370       -1.47572        0.61660
H         -1.62758        0.56620        2.42011
H         -0.91634       -0.76266        1.42750
H         -0.25077        0.88538        1.32791
O         -4.55910        3.82876        3.54704
H         -4.38556        4.25558        2.70374
H         -4.97723        4.51442        4.07208
