 13
 #Generated by chemFileConvert.py
  C           -3.2289460    -0.5624140     0.9038820
  O           -1.6145690     1.5396420     0.8254430
  S           -2.0221710     0.4454340     1.7798090
  C           -0.6847700    -0.7578760     1.7288330
  H           -3.4898540    -1.4266920     1.5114930
  H           -4.0973420     0.0694820     0.7363400
  H           -2.7987240    -0.8605900    -0.0502470
  H           -0.9666940    -1.6476190     2.2883110
  H           -0.4795180    -0.9906350     0.6859440
  H            0.1827710    -0.2879750     2.1838340
  O           -4.2209510     2.3791140    -0.2493500
  H           -3.2897510     2.3068290     0.0129610
  H           -4.3627940     3.3209000    -0.3533230
