 20
 #Generated by chemFileConvert.py
  C           -2.1078120    -0.3387290    -0.0969620
  O           -1.4104560     1.0924310     2.0265800
  S           -2.4708060     0.1072130     1.6054120
  C           -1.9716920    -1.4676230     2.3289970
  H           -2.7387130    -1.1739520    -0.3957540
  H           -2.3378460     0.5441090    -0.6878810
  H           -1.0518200    -0.5964010    -0.1591040
  H           -2.6241360    -2.2629870     1.9739130
  H           -0.9342460    -1.6541830     2.0584350
  H           -2.0609100    -1.3635100     3.4069450
  C           -3.1429130     4.0892750     1.6985200
  O           -3.3472640     2.7002120    -0.5550440
  S           -2.8554080     4.0416480    -0.0797160
  C           -1.0614730     3.9105130     0.0364510
  H           -2.7373150     5.0150110     2.1034020
  H           -4.2204190     4.0637090     1.8393870
  H           -2.6687880     3.2149440     2.1423500
  H           -0.6599770     4.8173440     0.4854810
  H           -0.8288800     3.0286450     0.6318090
  H           -0.6891030     3.8049020    -0.9794140
