20
072_DMSO-DMSO_1.30.txyz
C         -2.10781       -0.33873       -0.09696
O         -1.41046        1.09243        2.02658
S         -2.47081        0.10721        1.60541
C         -1.97169       -1.46762        2.32900
H         -2.73871       -1.17395       -0.39575
H         -2.33785        0.54411       -0.68788
H         -1.05182       -0.59640       -0.15910
H         -2.62414       -2.26299        1.97391
H         -0.93425       -1.65418        2.05843
H         -2.06091       -1.36351        3.40694
C         -3.24358        4.76303        1.47132
O         -3.44793        3.37397       -0.78224
S         -2.95608        4.71540       -0.30691
C         -1.16214        4.58427       -0.19074
H         -2.83799        5.68877        1.87621
H         -4.32109        4.73746        1.61219
H         -2.76946        3.88870        1.91515
H         -0.76065        5.49110        0.25829
H         -0.92955        3.70240        0.40461
H         -0.78977        4.47866       -1.20661
