 20
 #Generated by chemFileConvert.py
  C           -2.1078120    -0.3387290    -0.0969620
  O           -1.4104560     1.0924310     2.0265800
  S           -2.4708060     0.1072130     1.6054120
  C           -1.9716920    -1.4676230     2.3289970
  H           -2.7387130    -1.1739520    -0.3957540
  H           -2.3378460     0.5441090    -0.6878810
  H           -1.0518200    -0.5964010    -0.1591040
  H           -2.6241360    -2.2629870     1.9739130
  H           -0.9342460    -1.6541830     2.0584350
  H           -2.0609100    -1.3635100     3.4069450
  C           -3.1066500     3.8465730     1.7803610
  O           -3.3110010     2.4575100    -0.4732030
  S           -2.8191450     3.7989460     0.0021250
  C           -1.0252100     3.6678110     0.1182920
  H           -2.7010520     4.7723090     2.1852430
  H           -4.1841560     3.8210070     1.9212280
  H           -2.6325250     2.9722420     2.2241910
  H           -0.6237140     4.5746420     0.5673220
  H           -0.7926170     2.7859430     0.7136500
  H           -0.6528400     3.5622000    -0.8975730
