  9
 #Generated by chemFileConvert.py
  P           -0.3212000    -0.0258600     0.3144250
  O            1.1325150     0.1291540     0.8308480
  O           -0.6961380     1.6454840     0.0217810
  O           -1.2994630    -0.4664240     1.4146150
  O           -0.4939090    -0.7059760    -1.0353590
  H            0.1141110     2.0066780     0.3929770
  O            0.5028580    -0.4989600     3.3981750
  H            0.9984440    -0.2553320     2.5835480
  H           -0.3441830    -0.5593460     2.8974930
