9
073_PO4H-Water_1.60.txyz
P         -0.32120       -0.02586        0.31443
O          1.13251        0.12915        0.83085
O         -0.69614        1.64548        0.02178
O         -1.29946       -0.46642        1.41461
O         -0.49391       -0.70598       -1.03536
H          0.11411        2.00668        0.39298
O          1.16850       -0.56371        4.43145
H          1.66408       -0.32008        3.61682
H          0.32145       -0.62409        3.93076
