9
073_PO4H-Water_1.30.txyz
P         -0.32120       -0.02586        0.31443
O          1.13251        0.12915        0.83085
O         -0.69614        1.64548        0.02178
O         -1.29946       -0.46642        1.41461
O         -0.49391       -0.70598       -1.03536
H          0.11411        2.00668        0.39298
O          0.86683       -0.53436        3.96317
H          1.36242       -0.29074        3.14854
H          0.01979       -0.59475        3.46249
