  9
 #Generated by chemFileConvert.py
  P           -0.3212000    -0.0258600     0.3144250
  O            1.1325150     0.1291540     0.8308480
  O           -0.6961380     1.6454840     0.0217810
  O           -1.2994630    -0.4664240     1.4146150
  O           -0.4939090    -0.7059760    -1.0353590
  H            0.1141110     2.0066780     0.3929770
  O            0.5531360    -0.5038510     3.4762210
  H            1.0487220    -0.2602230     2.6615940
  H           -0.2939050    -0.5642370     2.9755390
