 10
 #Generated by chemFileConvert.py
  P           -0.3243770     0.1736180     0.4662050
  O            1.1324400     0.2767040     0.8483000
  O           -0.7747490     1.6669300    -0.0785120
  O           -1.3869290    -0.3260510     1.3845190
  O           -0.3842930    -0.7171170    -0.9239520
  H            0.0554780     2.1449670    -0.1581740
  H            0.5351330    -0.7837440    -1.1966380
  O            0.5994430    -0.7031800     3.3651840
  H            1.1067570    -0.3548480     2.6172620
  H           -0.2713390    -0.6957620     2.9421550
