10
074_PO4H2-Water_1.30.txyz
P         -0.32438        0.17362        0.46620
O          1.13244        0.27670        0.84830
O         -0.77475        1.66693       -0.07851
O         -1.38693       -0.32605        1.38452
O         -0.38429       -0.71712       -0.92395
H          0.05548        2.14497       -0.15817
H          0.53513       -0.78374       -1.19664
O          0.58803       -0.98387        4.15139
H          1.09534       -0.63554        3.40347
H         -0.28275       -0.97645        3.72836
