 11
 #Generated by chemFileConvert.py
  P           -0.3304560     0.1646340     0.2641460
  O            1.2077810     0.0802390     0.6534290
  O           -0.4096900     1.4981440    -0.6141910
  O           -1.2567170     0.0483500     1.4080310
  O           -0.5969430    -0.9367150    -0.8511770
  H           -0.2733620     2.2851210    -0.0760630
  H            0.0513860    -0.9020020    -1.5627540
  H            1.2875480    -0.3318580     1.5452470
  O            0.7728310    -0.9513630     2.9233890
  H            0.9327090    -0.6361700     3.8143810
  H           -0.1306090    -0.6658970     2.7059960
