 16
 #Generated by chemFileConvert.py
  P           -0.0345390    -0.2187240     1.1983610
  O            0.9939770    -0.6610930     0.0634880
  O            0.6964510     1.0805890     1.7108350
  O           -0.3834980    -1.2496500     2.2006320
  O           -1.3532430     0.2543680     0.4330890
  H            0.4678340     1.2714430     2.6453060
  H           -1.1668910     0.9332110    -0.2253710
  H            0.8496650    -1.5791460    -0.1922880
  P           -0.3025220     0.2021060     5.1213630
  O            0.8409110     0.5507360     6.1794330
  O           -0.2127560     1.4024880     4.0103030
  O           -1.6561620     0.1107130     5.6953420
  O            0.3705520    -0.9843030     4.3606490
  H           -0.9543790     2.0009870     4.1611040
  H           -0.0136780    -1.1698370     3.4630050
  H            0.4318520     0.7170590     7.0356790
