8
077_MeF-Water_1.60.txyz
F         -0.10445        0.93159       -0.41750
C         -0.68839       -0.27270       -0.04076
H          0.09166       -0.94823        0.29640
H         -1.39372       -0.07964        0.76189
H         -1.20495       -0.69090       -0.89942
O          3.81309       -0.15047        0.41507
H          4.63323        0.33768        0.32857
H          3.14134        0.46806        0.11338
