  8
 #Generated by chemFileConvert.py
  F           -0.1044510     0.9315880    -0.4175030
  C           -0.6883870    -0.2727000    -0.0407590
  H            0.0916640    -0.9482280     0.2964040
  H           -1.3937240    -0.0796360     0.7618900
  H           -1.2049480    -0.6908960    -0.8994190
  O            2.4844560    -0.0043830     0.2137010
  H            3.3045950     0.4837600     0.1271960
  H            1.8127040     0.6141470    -0.0879920
