 10
 #Generated by chemFileConvert.py
  F           -0.9143240     0.0000120     0.0000000
  C           -2.2973460     0.0000230     0.0000000
  H           -2.6517400     1.0270620    -0.0000010
  H           -2.6517520    -0.5134920     0.8894400
  H           -2.6517530    -0.5134930    -0.8894390
  F            3.3986160     0.0000190     0.0000010
  C            2.0152500     0.0000180    -0.0000000
  H            1.6574170     1.0254190    -0.0000000
  H            1.6574180    -0.5126840     0.8880230
  H            1.6574190    -0.5126830    -0.8880250
