10
079_MeF-MeF_2_1.30.txyz
F         -0.91432        0.00001        0.00000
C         -2.29735        0.00002        0.00000
H         -2.65174        1.02706       -0.00000
H         -2.65175       -0.51349        0.88944
H         -2.65175       -0.51349       -0.88944
F          4.52471        0.00002        0.00000
C          3.14134        0.00002        0.00000
H          2.78351        1.02542        0.00000
H          2.78351       -0.51268        0.88802
H          2.78351       -0.51268       -0.88802
