  8
 #Generated by chemFileConvert.py
 Cl           -0.9515890    -0.6340730     0.0005530
  C           -0.8020540     1.1450090    -0.0055460
  H            0.2466310     1.3954930    -0.1092890
  H           -1.3767320     1.5276110    -0.8401610
  H           -1.1968670     1.5190650     0.9311300
  O            1.9562930     0.0541790     0.0198070
  H            2.7481760    -0.4581420    -0.1524020
  H            1.2522200    -0.6010940     0.0220670
