  8
 #Generated by chemFileConvert.py
 Cl           -0.9515890    -0.6340730     0.0005530
  C           -0.8020540     1.1450090    -0.0055460
  H            0.2466310     1.3954930    -0.1092890
  H           -1.3767320     1.5276110    -0.8401610
  H           -1.1968670     1.5190650     0.9311300
  O            2.5330810     0.0688740     0.0221400
  H            3.3249640    -0.4434470    -0.1500690
  H            1.8290080    -0.5863990     0.0244000
