  8
 #Generated by chemFileConvert.py
 Cl           -0.9515890    -0.6340730     0.0005530
  C           -0.8020540     1.1450090    -0.0055460
  H            0.2466310     1.3954930    -0.1092890
  H           -1.3767320     1.5276110    -0.8401610
  H           -1.1968670     1.5190650     0.9311300
  O            1.4453770     0.0411630     0.0177410
  H            2.2372600    -0.4711580    -0.1544680
  H            0.7413040    -0.6141100     0.0200010
