10
081_MeCl-MeCl_1_1.30.txyz
Cl         2.11171       -0.53882        0.00018
C          1.76253        1.20921        0.00011
H          0.68762        1.34358        0.00012
H          2.20198        1.64383       -0.88966
H          2.20201        1.64391        0.88983
Cl        -3.10596        0.53804        0.00020
C         -2.75705       -1.21004        0.00012
H         -3.19669       -1.64461       -0.88958
H         -3.19647       -1.64465        0.88991
H         -1.68216       -1.34460       -0.00001
