10
081_MeCl-MeCl_1_1.60.txyz
Cl         2.11171       -0.53882        0.00018
C          1.76253        1.20921        0.00011
H          0.68762        1.34358        0.00012
H          2.20198        1.64383       -0.88966
H          2.20201        1.64391        0.88983
Cl        -4.04563        0.53723        0.00020
C         -3.69672       -1.21085        0.00012
H         -4.13637       -1.64542       -0.88958
H         -4.13615       -1.64546        0.88991
H         -2.62184       -1.34541       -0.00001
