 10
 #Generated by chemFileConvert.py
 Cl            2.1117070    -0.5388240     0.0001810
  C            1.7625300     1.2092080     0.0001100
  H            0.6876190     1.3435830     0.0001220
  H            2.2019800     1.6438300    -0.8896620
  H            2.2020080     1.6439080     0.8898310
 Cl           -2.1113410     0.5389010     0.0001990
  C           -1.7624310    -1.2091820     0.0001170
  H           -2.2020720    -1.6437550    -0.8895850
  H           -2.2018550    -1.6437950     0.8899070
  H           -0.6875420    -1.3437410    -0.0000150
