 10
 #Generated by chemFileConvert.py
 Cl            2.1117070    -0.5388240     0.0001810
  C            1.7625300     1.2092080     0.0001100
  H            0.6876190     1.3435830     0.0001220
  H            2.2019800     1.6438300    -0.8896620
  H            2.2020080     1.6439080     0.8898310
 Cl           -1.1858530     0.5396980     0.0001960
  C           -0.8369430    -1.2083850     0.0001140
  H           -1.2765840    -1.6429580    -0.8895880
  H           -1.2763670    -1.6429980     0.8899040
  H            0.2379460    -1.3429440    -0.0000180
