 10
 #Generated by chemFileConvert.py
 Cl           -1.0101650     0.0000090     0.0000000
  C           -2.7902180     0.0000240     0.0000000
  H           -3.1336600     1.0274250     0.0000000
  H           -3.1336730    -0.5136730     0.8897530
  H           -3.1336730    -0.5136730    -0.8897530
 Cl            3.9209000     0.0000160     0.0000000
  C            2.1409670     0.0000180     0.0000000
  H            1.7947930     1.0266270     0.0000000
  H            1.7947920    -0.5132860     0.8890690
  H            1.7947920    -0.5132860    -0.8890690
