 10
 #Generated by chemFileConvert.py
 Cl           -1.0101650     0.0000090     0.0000000
  C           -2.7902180     0.0000240     0.0000000
  H           -3.1336600     1.0274250     0.0000000
  H           -3.1336730    -0.5136730     0.8897530
  H           -3.1336730    -0.5136730    -0.8897530
 Cl            3.1999730     0.0000150     0.0000000
  C            1.4200400     0.0000170     0.0000000
  H            1.0738660     1.0266260     0.0000000
  H            1.0738650    -0.5132870     0.8890690
  H            1.0738650    -0.5132870    -0.8890690
