 10
 #Generated by chemFileConvert.py
 Cl           -1.0101650     0.0000090     0.0000000
  C           -2.7902180     0.0000240     0.0000000
  H           -3.1336600     1.0274250     0.0000000
  H           -3.1336730    -0.5136730     0.8897530
  H           -3.1336730    -0.5136730    -0.8897530
 Cl            4.2719690     0.0000160     0.0000000
  C            2.4920360     0.0000180     0.0000000
  H            2.1458620     1.0266270     0.0000000
  H            2.1458610    -0.5132860     0.8890690
  H            2.1458610    -0.5132860    -0.8890690
