10
082_MeCl-MeCl_2_1.90.txyz
Cl        -1.01016        0.00001        0.00000
C         -2.79022        0.00002        0.00000
H         -3.13366        1.02743        0.00000
H         -3.13367       -0.51367        0.88975
H         -3.13367       -0.51367       -0.88975
Cl         7.53545        0.00002        0.00000
C          5.75552        0.00003        0.00000
H          5.40935        1.02663        0.00000
H          5.40935       -0.51328        0.88907
H          5.40935       -0.51328       -0.88907
