  8
 #Generated by chemFileConvert.py
 Br           -0.4693700     1.4687390    -0.6092730
  C           -0.7387550    -0.3443790    -0.0021790
  H            0.2221980    -0.7333830     0.3101940
  H           -1.4397120    -0.3146330     0.8223390
  H           -1.1415180    -0.9128000    -0.8308320
  O            2.9760820    -0.2378980     0.2238500
  H            3.8703050     0.0452710     0.4229380
  H            2.5431830     0.5631430    -0.0858180
