  8
 #Generated by chemFileConvert.py
 Br           -0.4693700     1.4687390    -0.6092730
  C           -0.7387550    -0.3443790    -0.0021790
  H            0.2221980    -0.7333830     0.3101940
  H           -1.4397120    -0.3146330     0.8223390
  H           -1.1415180    -0.9128000    -0.8308320
  O            2.7784690    -0.1620670     0.1829540
  H            3.6726920     0.1211020     0.3820420
  H            2.3455700     0.6389740    -0.1267140
