8
083_MeBr-Water_1.60.txyz
Br        -0.46937        1.46874       -0.60927
C         -0.73876       -0.34438       -0.00218
H          0.22220       -0.73338        0.31019
H         -1.43971       -0.31463        0.82234
H         -1.14152       -0.91280       -0.83083
O          4.57734       -0.85236        0.55524
H          5.47156       -0.56919        0.75432
H          4.14444       -0.05132        0.24557
