10
084_MeBr-MeBr_1_1.90.txyz
Br         2.17749       -0.60741        0.00015
C          1.82312        1.28819        0.00011
H          0.74923        1.42657        0.00014
H          2.26976        1.71043       -0.89130
H          2.26982        1.71047        0.89148
Br        -5.35392        1.05240        0.00017
C         -4.99980       -0.84324        0.00013
H         -5.44663       -1.26544       -0.89121
H         -5.44643       -1.26544        0.89157
H         -3.92593       -0.98180        0.00001
