 10
 #Generated by chemFileConvert.py
 Br            2.1774920    -0.6074080     0.0001450
  C            1.8231200     1.2881860     0.0001140
  H            0.7492340     1.4265720     0.0001430
  H            2.2697630     1.7104300    -0.8913010
  H            2.2698170     1.7104690     0.8914830
 Br           -2.3406120     0.6303750     0.0001620
  C           -1.9864940    -1.2652650     0.0001210
  H           -2.4333240    -1.6874650    -0.8912210
  H           -2.4331270    -1.6874670     0.8915610
  H           -0.9126300    -1.4038190     0.0000040
