 10
 #Generated by chemFileConvert.py
 Br           -1.0195800     0.0000080     0.0000000
  C           -2.9461150     0.0000240     0.0000000
  H           -3.2822580     1.0291710    -0.0000010
  H           -3.2822710    -0.5145450     0.8912640
  H           -3.2822710    -0.5145450    -0.8912650
 Br            3.4066020     0.0000160    -0.0000030
  C            1.4802810     0.0000170     0.0000020
  H            1.1420970     1.0287850     0.0000030
  H            1.1420990    -0.5143680     0.8909420
  H            1.1420950    -0.5143670    -0.8909370
