 10
 #Generated by chemFileConvert.py
 Br           -1.0195800     0.0000080     0.0000000
  C           -2.9461150     0.0000240     0.0000000
  H           -3.2822580     1.0291710    -0.0000010
  H           -3.2822710    -0.5145450     0.8912640
  H           -3.2822710    -0.5145450    -0.8912650
 Br            4.8634840     0.0000170    -0.0000040
  C            2.9371630     0.0000180     0.0000010
  H            2.5989790     1.0287860     0.0000020
  H            2.5989810    -0.5143670     0.8909410
  H            2.5989770    -0.5143660    -0.8909380
