 15
 #Generated by chemFileConvert.py
  F            1.8654390    -0.0370790    -0.0002270
  C            0.5153080    -0.0220130    -0.0001050
  C           -0.1371250     1.2001480    -0.0001600
  C           -0.1642150    -1.2293140     0.0000630
  C           -1.5303250     1.2070050    -0.0000410
  C           -1.5572190    -1.2050940     0.0001800
  C           -2.2415440     0.0087370     0.0001280
  H            0.4381760     2.1142970    -0.0002860
  H            0.3905970    -2.1560310     0.0000990
  H           -2.0566140     2.1511550    -0.0000790
  H           -2.1044390    -2.1372690     0.0003130
  H           -3.3219480     0.0207840     0.0002210
  O            4.7162220     0.0321220     0.0012800
  H            4.1133910     0.0137940     0.7473080
  H            4.1188420     0.0156960    -0.7491580
