 15
 #Generated by chemFileConvert.py
 Cl            2.0129150    -0.1411090     0.0000460
  C            0.2808090    -0.0721020     0.0000070
  C           -0.3578450     1.1655420    -0.0000280
  C           -0.4510000    -1.2570420     0.0000120
  C           -1.7498190     1.2121640    -0.0000570
  C           -1.8423560    -1.1962090    -0.0000170
  C           -2.4949320     0.0348750    -0.0000520
  H            0.2311970     2.0711410    -0.0000330
  H            0.0672090    -2.2049560     0.0000410
  H           -2.2500010     2.1708700    -0.0000860
  H           -2.4146820    -2.1136480    -0.0000150
  H           -3.5750080     0.0764250    -0.0000780
  O            4.3415510    -0.2316150     0.0000870
  H            4.6014090     0.3010260     0.7541490
  H            4.6013980     0.3010090    -0.7539940
