15
087_BenCl-Water_1.30.txyz
Cl         2.01292       -0.14111        0.00005
C          0.28081       -0.07210        0.00001
C         -0.35785        1.16554       -0.00003
C         -0.45100       -1.25704        0.00001
C         -1.74982        1.21216       -0.00006
C         -1.84236       -1.19621       -0.00002
C         -2.49493        0.03488       -0.00005
H          0.23120        2.07114       -0.00003
H          0.06721       -2.20496        0.00004
H         -2.25000        2.17087       -0.00009
H         -2.41468       -2.11365       -0.00002
H         -3.57501        0.07643       -0.00008
O          6.33752       -0.30919        0.00012
H          6.59738        0.22345        0.75418
H          6.59737        0.22343       -0.75396
