15
088_BenBr-Water_1.30.txyz
Br         2.11960       -0.13136        0.00005
C          0.23817       -0.06500        0.00001
C         -0.40725        1.16961       -0.00003
C         -0.49034       -1.25250        0.00001
C         -1.79976        1.21044       -0.00006
C         -1.88234       -1.19758       -0.00002
C         -2.54058        0.03044       -0.00006
H          0.17302        2.08098       -0.00003
H          0.02631       -2.20138        0.00004
H         -2.30282        2.16780       -0.00009
H         -2.44980       -2.11820       -0.00001
H         -3.62087        0.06751       -0.00008
O          6.33104       -0.21364        0.00012
H          6.75803        0.19796        0.75420
H          6.75803        0.19796       -0.75397
