10
089_CH2F2-CH2F2_1.60.txyz
F          0.93994        0.55760        1.46215
F         -0.94188       -0.58147        1.45772
C         -0.00706       -0.00499        2.25322
H         -0.48115        0.77597        2.84021
H          0.45790       -0.77548        2.86099
F          0.56922       -0.91625       -4.37564
F         -0.56908        0.96751       -4.33439
C          0.00890        0.01361       -3.56237
H          0.78955        0.47229       -2.96354
H         -0.75838       -0.46315       -2.96040
