 10
 #Generated by chemFileConvert.py
  F            0.9399380     0.5575980     1.4621490
  F           -0.9418800    -0.5814750     1.4577250
  C           -0.0070560    -0.0049890     2.2532210
  H           -0.4811500     0.7759750     2.8402070
  H            0.4579030    -0.7754750     2.8609930
  F            0.5671220    -0.9284200    -2.1570050
  F           -0.5711770     0.9553440    -2.1157520
  C            0.0068000     0.0014380    -1.3437360
  H            0.7874560     0.4601190    -0.7449070
  H           -0.7604760    -0.4753210    -0.7417690
