 10
 #Generated by chemFileConvert.py
  F            0.9399380     0.5575980     1.4621490
  F           -0.9418800    -0.5814750     1.4577250
  C           -0.0070560    -0.0049890     2.2532210
  H           -0.4811500     0.7759750     2.8402070
  H            0.4579030    -0.7754750     2.8609930
  F            0.5668600    -0.9299420    -1.8794950
  F           -0.5714390     0.9538220    -1.8382420
  C            0.0065380    -0.0000840    -1.0662260
  H            0.7871940     0.4585970    -0.4673970
  H           -0.7607380    -0.4768430    -0.4642590
