10
090_CH2Cl2-CH2Cl2_1.90.txyz
Cl         0.34546        1.41892        1.44549
Cl        -0.36208       -1.43428        1.44348
C         -0.01303       -0.00717        2.42945
H         -0.88541        0.20844        3.03203
H          0.85336       -0.22219        3.04079
Cl        -0.35574       -1.39677       -6.91823
Cl         0.34714        1.45860       -6.91585
C          0.02051        0.02416       -5.93495
H          0.90148       -0.19426       -5.34670
H         -0.82923        0.23384       -5.29968
