 10
 #Generated by chemFileConvert.py
 Cl            0.3454590     1.4189180     1.4454870
 Cl           -0.3620810    -1.4342790     1.4434800
  C           -0.0130340    -0.0071660     2.4294510
  H           -0.8854120     0.2084410     3.0320320
  H            0.8533620    -0.2221870     3.0407920
 Cl           -0.3606410    -1.4163530    -2.5264490
 Cl            0.3422400     1.4390160    -2.5240640
  C            0.0156070     0.0045720    -1.5431660
  H            0.8965730    -0.2138460    -0.9549220
  H           -0.8341350     0.2142580    -0.9078960
