 10
 #Generated by chemFileConvert.py
 Cl            0.3454590     1.4189180     1.4454870
 Cl           -0.3620810    -1.4342790     1.4434800
  C           -0.0130340    -0.0071660     2.4294510
  H           -0.8854120     0.2084410     3.0320320
  H            0.8533620    -0.2221870     3.0407920
 Cl           -0.3600000    -1.4137920    -3.1009370
 Cl            0.3428810     1.4415770    -3.0985520
  C            0.0162480     0.0071330    -2.1176540
  H            0.8972140    -0.2112850    -1.5294100
  H           -0.8334940     0.2168190    -1.4823840
