10
090_CH2Cl2-CH2Cl2_1.60.txyz
Cl         0.34546        1.41892        1.44549
Cl        -0.36208       -1.43428        1.44348
C         -0.01303       -0.00717        2.42945
H         -0.88541        0.20844        3.03203
H          0.85336       -0.22219        3.04079
Cl        -0.35726       -1.40284       -5.55595
Cl         0.34562        1.45253       -5.55357
C          0.01899        0.01808       -4.57267
H          0.89995       -0.20034       -3.98442
H         -0.83075        0.22777       -3.93740
