 10
 #Generated by chemFileConvert.py
 Br            0.3777210     1.5497260     1.4344090
 Br           -0.3930130    -1.5625820     1.4284190
  C           -0.0131690    -0.0070870     2.4857150
  H           -0.8857710     0.2079010     3.0873280
  H            0.8531130    -0.2227370     3.0961620
 Br           -0.3934180    -1.5442360    -2.9821560
 Br            0.3749690     1.5702550    -2.9794220
  C            0.0165010     0.0057530    -1.9299360
  H            0.8976730    -0.2121490    -1.3430350
  H           -0.8345080     0.2151560    -1.2974840
