10
091_CH2Br2-CH2Br2_1.90.txyz
Br         0.37772        1.54973        1.43441
Br        -0.39301       -1.56258        1.42842
C         -0.01317       -0.00709        2.48571
H         -0.88577        0.20790        3.08733
H          0.85311       -0.22274        3.09616
Br        -0.39230       -1.52590       -7.27204
Br         0.37609        1.58859       -7.26931
C          0.01762        0.02409       -6.21982
H          0.89879       -0.19381       -5.63292
H         -0.83339        0.23349       -5.58737
