 10
 #Generated by chemFileConvert.py
 Br            0.3777210     1.5497260     1.4344090
 Br           -0.3930130    -1.5625820     1.4284190
  C           -0.0131690    -0.0070870     2.4857150
  H           -0.8857710     0.2079010     3.0873280
  H            0.8531130    -0.2227370     3.0961620
 Br           -0.3933170    -1.5425890    -3.3675780
 Br            0.3750700     1.5719020    -3.3648440
  C            0.0166020     0.0074000    -2.3153580
  H            0.8977740    -0.2105020    -1.7284570
  H           -0.8344070     0.2168030    -1.6829060
