11
092_MeNH3-Water_1.90.txyz
N         -0.63510       -0.24160        0.27316
H         -0.70159       -1.18916        0.64124
H         -1.17127       -0.21810       -0.59271
H          0.36544       -0.04995        0.04315
C         -1.15275        0.75820        1.25700
H         -1.06065        1.74472        0.81900
H         -2.19013        0.53631        1.47724
H         -0.55178        0.69261        2.15594
O          3.45051        0.80295       -0.46003
H          3.79586        1.35005       -1.17177
H          4.23207        0.44832       -0.02579
