 11
 #Generated by chemFileConvert.py
  N           -0.6350970    -0.2416010     0.2731620
  H           -0.7015940    -1.1891620     0.6412360
  H           -1.1712720    -0.2180970    -0.5927110
  H            0.3654370    -0.0499530     0.0431460
  C           -1.1527530     0.7582030     1.2570020
  H           -1.0606550     1.7447240     0.8189950
  H           -2.1901300     0.5363150     1.4772400
  H           -0.5517780     0.6926060     2.1559360
  O            1.5020450     0.2642760    -0.1422360
  H            1.8473920     0.8113770    -0.8539750
  H            2.2835990    -0.0903500     0.2920080
