11
092_MeNH3-Water_1.30.txyz
N         -0.63510       -0.24160        0.27316
H         -0.70159       -1.18916        0.64124
H         -1.17127       -0.21810       -0.59271
H          0.36544       -0.04995        0.04315
C         -1.15275        0.75820        1.25700
H         -1.06065        1.74472        0.81900
H         -2.19013        0.53631        1.47724
H         -0.55178        0.69261        2.15594
O          2.47628        0.53361       -0.30113
H          2.82163        1.08071       -1.01287
H          3.25783        0.17899        0.13311
