 13
 #Generated by chemFileConvert.py
  C           -3.7195090    -0.0093720     0.0318270
  C           -2.6580580    -0.8707070     0.1044850
  N           -1.5214890    -0.1124320     0.0049090
  C           -1.8486950     1.1719820    -0.1250300
  N           -3.1843230     1.2449730    -0.1097680
  H           -3.7097160     2.1036050    -0.1913600
  H           -0.5489970    -0.4684270     0.0257510
  H           -4.7780470    -0.1865730     0.0687330
  H           -2.6303350    -1.9383690     0.2166920
  H           -1.1679570     1.9973030    -0.2238380
  O            1.1437970    -1.0394500     0.0569250
  H            1.6930240    -1.1946140     0.8303570
  H            1.6671300    -1.3544950    -0.6852290
