 13
 #Generated by chemFileConvert.py
  C           -2.4829410     0.1455680     0.1158820
  N           -3.7412650     0.5451140     0.2945210
  N           -2.2230010    -1.0650260    -0.3624870
  N           -1.4721240     0.9526640     0.4138500
  H           -0.5254700     0.6273740     0.2698000
  H           -1.6318070     1.8741450     0.7774880
  H           -3.9495100     1.4582400     0.6554170
  H           -4.5132720    -0.0567230     0.0726920
  H           -2.9623560    -1.7010510    -0.5984670
  H           -1.2599090    -1.3461520    -0.4895060
  O            0.9363430    -0.9400810    -0.3694230
  H            1.4841790    -0.8418040    -1.1547560
  H            1.5090670    -1.3941860     0.2569200
