13
094_CN3H6-Water_1.30.txyz
C         -2.48294        0.14557        0.11588
N         -3.74126        0.54511        0.29452
N         -2.22300       -1.06503       -0.36249
N         -1.47212        0.95266        0.41385
H         -0.52547        0.62737        0.26980
H         -1.63181        1.87414        0.77749
H         -3.94951        1.45824        0.65542
H         -4.51327       -0.05672        0.07269
H         -2.96236       -1.70105       -0.59847
H         -1.25991       -1.34615       -0.48951
O          1.50505       -1.12064       -0.45013
H          2.05289       -1.02236       -1.23547
H          2.07777       -1.57474        0.17621
