10
095_AcOHMinus-Water_1.60.txyz
C         -0.83993        0.48071       -0.36961
C         -2.10728       -0.34200       -0.04933
O         -2.04286       -1.58005       -0.26414
O         -3.07717        0.32653        0.39713
H         -0.50604        0.99511        0.53192
H         -0.03980       -0.15069       -0.75028
H         -1.08413        1.24881       -1.10393
O         -5.60995       -2.79827        0.80751
H         -5.36695       -1.85844        0.86742
H         -4.74887       -3.08079        0.45938
