 10
 #Generated by chemFileConvert.py
  C           -0.8399350     0.4807070    -0.3696050
  C           -2.1072780    -0.3420020    -0.0493320
  O           -2.0428620    -1.5800500    -0.2641380
  O           -3.0771720     0.3265260     0.3971320
  H           -0.5060400     0.9951150     0.5319170
  H           -0.0398040    -0.1506950    -0.7502850
  H           -1.0841300     1.2488090    -1.1039280
  O           -4.6081760    -1.8423470     0.6017620
  H           -4.3651720    -0.9025180     0.6616680
  H           -3.7470960    -2.1248660     0.2536290
