10
095_AcOHMinus-Water_1.90.txyz
C         -0.83993        0.48071       -0.36961
C         -2.10728       -0.34200       -0.04933
O         -2.04286       -1.58005       -0.26414
O         -3.07717        0.32653        0.39713
H         -0.50604        0.99511        0.53192
H         -0.03980       -0.15069       -0.75028
H         -1.08413        1.24881       -1.10393
O         -6.03929       -3.20795        0.89569
H         -5.79628       -2.26812        0.95560
H         -5.17821       -3.49047        0.54756
