12
096_DimethylSulfide-Water_1.90.txyz
C         -0.86223       -0.93355       -0.24602
C         -3.19391        0.46108       -0.01976
S         -2.33274       -0.56771       -1.22945
H         -1.13627       -1.46246        0.66402
H         -0.21653       -1.56791       -0.84780
H         -0.33113       -0.01579       -0.00365
H         -3.40056       -0.10803        0.88381
H         -2.60236        1.34271        0.21665
H         -4.13332        0.77468       -0.46768
O         -4.61835       -4.82498        1.45080
H         -4.44385       -4.39548        0.60276
H         -5.11203       -5.61171        1.21294
