 12
 #Generated by chemFileConvert.py
  C           -0.8622250    -0.9335500    -0.2460230
  C           -3.1939110     0.4610760    -0.0197610
  S           -2.3327360    -0.5677070    -1.2294530
  H           -1.1362690    -1.4624590     0.6640190
  H           -0.2165310    -1.5679050    -0.8477970
  H           -0.3311290    -0.0157860    -0.0036480
  H           -3.4005570    -0.1080300     0.8838090
  H           -2.6023640     1.3427110     0.2166530
  H           -4.1333160     0.7746760    -0.4676800
  O           -3.2700310    -2.4463650     0.6877320
  H           -3.0955250    -2.0168610    -0.1602980
  H           -3.7637120    -3.2330930     0.4498790
