 12
 #Generated by chemFileConvert.py
  C           -3.7505320     0.0431690     0.0267870
  C           -2.7167600    -0.8644090     0.1048030
  N           -1.5733750    -0.1180820     0.0063700
  C           -1.9502670     1.1813180    -0.1242960
  N           -3.2673260     1.3189330    -0.1161750
  H           -0.6236500    -0.4674060     0.0269100
  H           -4.8068950    -0.1576260     0.0661440
  H           -2.6962000    -1.9328990     0.2172250
  H           -1.2358930     1.9803190    -0.2209120
  O            1.3205540    -1.1604920     0.0666890
  H            1.9044830    -1.2205750     0.8255930
  H            1.8786790    -1.3797870    -0.6822590
