12
097_Imidazole-Water_1.30.txyz
C         -3.75053        0.04317        0.02679
C         -2.71676       -0.86441        0.10480
N         -1.57337       -0.11808        0.00637
C         -1.95027        1.18132       -0.12430
N         -3.26733        1.31893       -0.11618
H         -0.62365       -0.46741        0.02691
H         -4.80689       -0.15763        0.06614
H         -2.69620       -1.93290        0.21723
H         -1.23589        1.98032       -0.22091
O          1.78346       -1.32551        0.07616
H          2.36739       -1.38560        0.83507
H          2.34158       -1.54481       -0.67279
