17
098_Pyrrolidine-Water_1.60.txyz
N         -2.26653        1.75516        0.35236
C         -3.25629        0.72473        0.01424
C         -2.42257       -0.28946       -0.77565
C         -0.98725       -0.11869       -0.22153
C         -1.11926        0.97899        0.83925
H         -4.07372        1.14883       -0.56526
H         -3.67293        0.25296        0.91284
H         -2.80279       -1.30034       -0.64996
H         -2.44477       -0.04529       -1.83426
H         -0.59036       -1.03711        0.20417
H         -0.31853        0.20768       -1.01341
H         -1.31950        0.53297        1.82140
H         -0.23329        1.60575        0.91735
H         -2.61772        2.37959        1.06960
O         -0.98873        2.95238       -3.32636
H         -1.32880        2.86046       -2.41720
H         -1.03404        3.89384       -3.49933
