 17
 #Generated by chemFileConvert.py
  N           -2.2665280     1.7551600     0.3523560
  C           -3.2562880     0.7247330     0.0142390
  C           -2.4225700    -0.2894620    -0.7756490
  C           -0.9872470    -0.1186910    -0.2215320
  C           -1.1192600     0.9789940     0.8392520
  H           -4.0737160     1.1488270    -0.5652640
  H           -3.6729280     0.2529640     0.9128420
  H           -2.8027860    -1.3003390    -0.6499560
  H           -2.4447730    -0.0452880    -1.8342580
  H           -0.5903580    -1.0371090     0.2041700
  H           -0.3185330     0.2076840    -1.0134090
  H           -1.3194960     0.5329730     1.8213990
  H           -0.2332930     1.6057540     0.9173520
  H           -2.6177160     2.3795850     1.0695950
  O           -1.3696830     2.5033570    -2.2012260
  H           -1.7097520     2.4114300    -1.2920680
  H           -1.4149870     3.4448090    -2.3741960
