16
100_Water-Phenol_1.60.txyz
C         -3.55522       -0.14505        0.62506
C         -3.18555        1.19634        0.55409
C         -1.96533        1.56637       -0.00538
C         -1.11331        0.57774       -0.49598
C         -1.47389       -0.76377       -0.42941
C         -2.69776       -1.13126        0.13203
O         -3.00030       -2.45670        0.17187
H         -4.50384       -0.43194        1.06006
H         -3.85748        1.95168        0.93904
H         -1.68214        2.60790       -0.05862
H         -0.16220        0.84985       -0.93337
H         -0.82258       -1.53999       -0.80608
H         -3.87206       -2.56958        0.58371
O         -6.57858       -3.22720        1.83780
H         -7.24054       -3.64252        1.28023
H         -6.58307       -3.75169        2.64182
