  8
 #Generated by chemFileConvert.py
  C            1.9529400    -0.0000180     0.0000200
  H            2.3176520    -0.4716210     0.9075640
  H            2.3177190    -0.5504180    -0.8619910
  H            2.3200280     1.0209220    -0.0454770
  H            0.8674090     0.0015960    -0.0000900
  O           -1.9705069     0.0002499    -0.0001120
  H           -2.5661238     0.7521199     0.0003799
  H           -2.5616619    -0.7551331     0.0003779
