  8
 #Generated by chemFileConvert.py
  C            1.9529400    -0.0000180     0.0000200
  H            2.3176520    -0.4716210     0.9075640
  H            2.3177190    -0.5504180    -0.8619910
  H            2.3200280     1.0209220    -0.0454770
  H            0.8674090     0.0015960    -0.0000900
  O           -2.1056457     0.0001858    -0.0001131
  H           -2.7012627     0.7520558     0.0003789
  H           -2.6968007    -0.7551972     0.0003769
