  8
 #Generated by chemFileConvert.py
  C            1.9529400    -0.0000180     0.0000200
  H            2.3176520    -0.4716210     0.9075640
  H            2.3177190    -0.5504180    -0.8619910
  H            2.3200280     1.0209220    -0.0454770
  H            0.8674090     0.0015960    -0.0000900
  O           -1.7002291     0.0003781    -0.0001100
  H           -2.2958462     0.7522481     0.0003820
  H           -2.2913841    -0.7550049     0.0003800
