9
103_Wat_Ethene_1.30.txyz
C          1.29126       -0.66691       -0.01469
H          1.58631       -1.22855        0.86010
H          1.00095       -1.22863       -0.89102
C          1.29117        0.66693       -0.01469
H          1.00080        1.22860       -0.89103
H          1.58616        1.22862        0.86008
O         -2.92893       -0.00001       -0.03843
H         -1.98885        0.00009        0.16495
H         -3.34698       -0.00002        0.82437
