  7
 #Generated by chemFileConvert.py
  O            1.5849360     0.1046930     0.0000050
  H            1.9493730    -0.7811500     0.0000520
  H            0.6265030    -0.0404250    -0.0003230
  N           -1.0036402    -0.0286170    -0.0000774
  H           -1.4749502    -0.3829680     0.8218546
  H           -1.1948382     0.9648260    -0.0259594
  H           -1.4847342    -0.4270260    -0.7957364
