  7
 #Generated by chemFileConvert.py
  O            1.5849360     0.1046930     0.0000050
  H            1.9493730    -0.7811500     0.0000520
  H            0.6265030    -0.0404250    -0.0003230
  N           -1.5130599    -0.0249270    -0.0000007
  H           -1.9843700    -0.3792780     0.8219313
  H           -1.7042579     0.9685160    -0.0258827
  H           -1.9941540    -0.4233360    -0.7956597
