  7
 #Generated by chemFileConvert.py
  O            1.5849360     0.1046930     0.0000050
  H            1.9493730    -0.7811500     0.0000520
  H            0.6265030    -0.0404250    -0.0003230
  N           -1.6149439    -0.0241890     0.0000147
  H           -2.0862539    -0.3785400     0.8219467
  H           -1.8061419     0.9692540    -0.0258673
  H           -2.0960379    -0.4225980    -0.7956443
