7
104_Water_Ammonia_1.90.txyz
O          1.58494        0.10469        0.00001
H          1.94937       -0.78115        0.00005
H          0.62650       -0.04043       -0.00032
N         -3.24509       -0.01238        0.00026
H         -3.71640       -0.36673        0.82219
H         -3.43628        0.98106       -0.02562
H         -3.72618       -0.41079       -0.79540
