  7
 #Generated by chemFileConvert.py
  O            1.5849360     0.1046930     0.0000050
  H            1.9493730    -0.7811500     0.0000520
  H            0.6265030    -0.0404250    -0.0003230
  N           -1.2074081    -0.0271410    -0.0000467
  H           -1.6787181    -0.3814920     0.8218853
  H           -1.3986061     0.9663020    -0.0259287
  H           -1.6885021    -0.4255500    -0.7957057
