9

  C       -2.0248320     0.0000260    -0.0000050
  H       -2.3909010    -0.6187910    -0.8139580
  H       -2.3914520    -0.3956150     0.9426100
  H       -2.3917560     1.0140310    -0.1289270
  H       -0.9387720     0.0004680     0.0002870
  N        1.0542547     0.0001999     0.0000812
  H        1.4472917     0.3764129    -0.8527428
  H        1.4473457     0.5501719     0.7526332
  H        1.4459147    -0.9270831     0.1004412
