9
105_Ammonia_Methane_1.90.txyz
C         -2.02483        0.00003       -0.00001
H         -2.39090       -0.61879       -0.81396
H         -2.39145       -0.39561        0.94261
H         -2.39176        1.01403       -0.12893
H         -0.93877        0.00047        0.00029
N          4.47087       -0.00026       -0.00027
H          4.86391        0.37595       -0.85310
H          4.86396        0.54971        0.75228
H          4.86253       -0.92754        0.10009
