9
105_Ammonia_Methane_1.30.txyz
C         -2.02483        0.00003       -0.00001
H         -2.39090       -0.61879       -0.81396
H         -2.39145       -0.39561        0.94261
H         -2.39176        1.01403       -0.12893
H         -0.93877        0.00047        0.00029
N          2.76256       -0.00003       -0.00010
H          3.15560        0.37618       -0.85292
H          3.15565        0.54994        0.75246
H          3.15422       -0.92731        0.10027
