 11
 #Generated by chemFileConvert.py
  C            1.4332690     0.6735240     0.0000730
  H            2.3145860     1.2986820    -0.0008990
  H            0.4727190     1.1682030     0.0010680
  C            1.5272490    -0.6552880     0.0000450
  H            0.6458790    -1.2802970     0.0010180
  H            2.4874960    -1.1507030    -0.0009510
  C           -1.7474469     0.0300799     0.1688266
  H           -2.0380179     1.0761309     0.1686936
  H           -1.1574439    -0.1813261    -0.7177104
  H           -1.1583899    -0.1813611     1.0559866
  H           -2.6376119    -0.5910741     0.1683476
