 11
 #Generated by chemFileConvert.py
  C            1.4332690     0.6735240     0.0000730
  H            2.3145860     1.2986820    -0.0008990
  H            0.4727190     1.1682030     0.0010680
  C            1.5272490    -0.6552880     0.0000450
  H            0.6458790    -1.2802970     0.0010180
  H            2.4874960    -1.1507030    -0.0009510
  C           -2.2171012    -0.0038259     0.0410241
  H           -2.5076722     1.0422251     0.0408911
  H           -1.6270982    -0.2152319    -0.8455129
  H           -1.6280442    -0.2152669     0.9281841
  H           -3.1072662    -0.6249799     0.0405451
