 11
 #Generated by chemFileConvert.py
  C            1.4332690     0.6735240     0.0000730
  H            2.3145860     1.2986820    -0.0008990
  H            0.4727190     1.1682030     0.0010680
  C            1.5272490    -0.6552880     0.0000450
  H            0.6458790    -1.2802970     0.0010180
  H            2.4874960    -1.1507030    -0.0009510
  C           -2.7228843    -0.0403400    -0.0966098
  H           -3.0134553     1.0057110    -0.0967428
  H           -2.1328813    -0.2517460    -0.9831468
  H           -2.1338273    -0.2517810     0.7905502
  H           -3.6130493    -0.6614940    -0.0970888
