 10
 #Generated by chemFileConvert.py
  C           -1.6354650    -0.5897110     0.0002600
  C           -1.2537280     0.6873690    -0.0002080
  H           -1.7991590    -1.1277920    -0.9224230
  H           -1.7980920    -1.1274340     0.9233410
  H           -1.0910530     1.2267530     0.9217400
  H           -1.0921080     1.2262650    -0.9226260
  N            2.1892877     0.0376119    -0.0004060
  H            2.5726607    -0.4325781     0.8090520
  H            1.1986277    -0.1713541    -0.0018480
  H            2.5764387    -0.4386051    -0.8045370
