10
108_Amm_Ethene_TS_1.60.txyz
C         -1.25921        0.66137       -0.00129
C         -1.81383       -0.55085        0.00043
H         -1.87331        1.55125       -0.00252
H         -0.18486        0.78706       -0.00203
H         -1.20480       -1.44429        0.00316
H         -2.88628       -0.68560        0.00096
N          4.08814       -0.04353       -0.00384
H          4.97895        0.43572       -0.03355
H          4.10999       -0.60966        0.83474
H          4.09591       -0.69383       -0.77932
