 10
 #Generated by chemFileConvert.py
  C           -1.2592080     0.6613710    -0.0012880
  C           -1.8138340    -0.5508520     0.0004330
  H           -1.8733130     1.5512530    -0.0025230
  H           -0.1848620     0.7870610    -0.0020300
  H           -1.2047970    -1.4442860     0.0031610
  H           -2.8862820    -0.6856040     0.0009570
  N            1.5142796     0.0014662    -0.0022586
  H            2.4050906     0.4807242    -0.0319696
  H            1.5361316    -0.5646648     0.8363274
  H            1.5220536    -0.6488278    -0.7777346
