 10
 #Generated by chemFileConvert.py
  C           -1.2592080     0.6613710    -0.0012880
  C           -1.8138340    -0.5508520     0.0004330
  H           -1.8733130     1.5512530    -0.0025230
  H           -0.1848620     0.7870610    -0.0020300
  H           -1.2047970    -1.4442860     0.0031610
  H           -2.8862820    -0.6856040     0.0009570
  N            2.2270285    -0.0109950    -0.0026971
  H            3.1178395     0.4682630    -0.0324081
  H            2.2488805    -0.5771260     0.8358889
  H            2.2348025    -0.6612890    -0.7781731
