14

  C        2.1022740    -0.1999910     0.0000010
  H        3.1931760    -0.2048250     0.0000000
  N        1.3929100    -1.2773340     0.0000000
  H        2.0119970    -2.0793170    -0.0000010
  N        1.5658380     1.0343930     0.0000000
  H        0.5512430     1.1716950     0.0000000
  H        2.1722770     1.8295020    -0.0000010
  C       -1.8063992     0.1756969     0.0000000
  H       -2.8973012     0.1805309     0.0000000
  N       -1.0970352     1.2530399     0.0000000
  H       -1.7161222     2.0550229     0.0000000
  N       -1.2699632    -1.0586871     0.0000000
  H       -0.2553682    -1.1959891     0.0000000
  H       -1.8764022    -1.8537961     0.0000000
