14

  C        2.1022740    -0.1999910     0.0000010
  H        3.1931760    -0.2048250     0.0000000
  N        1.3929100    -1.2773340     0.0000000
  H        2.0119970    -2.0793170    -0.0000010
  N        1.5658380     1.0343930     0.0000000
  H        0.5512430     1.1716950     0.0000000
  H        2.1722770     1.8295020    -0.0000010
  C       -2.3981488     0.2242851     0.0000000
  H       -3.4890508     0.2291191     0.0000000
  N       -1.6887848     1.3016281     0.0000000
  H       -2.3078718     2.1036111     0.0000000
  N       -1.8617128    -1.0100989     0.0000000
  H       -0.8471178    -1.1474009     0.0000000
  H       -2.4681518    -1.8052079     0.0000000
