10

  C        1.9047060    -0.1798760     0.0000010
  H        2.9930900    -0.2590830    -0.0000010
  O        1.1798480    -1.1602640     0.0000000
  O        1.5170880     1.0770050     0.0000000
  H        0.5236580     1.1098660     0.0000010
  C       -2.1744237     0.1881856    -0.0000010
  H       -3.2628138     0.2673276     0.0000000
  O       -1.4496248     1.1686176     0.0000000
  O       -1.7867238    -1.0686694     0.0000000
  H       -0.7932778    -1.1014694     0.0000010
