12

  C        2.0083120    -0.3372920     0.0000040
  H        3.1030340    -0.4288200    -0.0000030
  O        1.2864570    -1.3299810     0.0000000
  N        1.5810970     0.9343630     0.0000010
  H        0.5827550     1.1459700     0.0000010
  H        2.1087903     1.6984599    -0.0000030
  C       -2.1516897     0.3570729     0.0000010
  H       -3.2464117     0.4486009    -0.0000010
  O       -1.4298347     1.3497619    -0.0000000
  N       -1.7244747    -0.9145821    -0.0000000
  H       -0.7261327    -1.1261891    -0.0000000
  H       -2.3955457    -1.6588981    -0.0000010
