12

  C        2.0083120    -0.3372920     0.0000040
  H        3.1030340    -0.4288200    -0.0000030
  O        1.2864570    -1.3299810     0.0000000
  N        1.5810970     0.9343630     0.0000010
  H        0.5827550     1.1459700     0.0000010
  H        2.8256788     1.5995554    -0.0000029
  C       -1.4348012     0.2581684     0.0000011
  H       -2.5295232     0.3496964    -0.0000009
  O       -0.7129462     1.2508574     0.0000001
  N       -1.0075862    -1.0134866     0.0000001
  H       -0.0092442    -1.2250936     0.0000001
  H       -1.6786572    -1.7578026    -0.0000009
