13

  C       -2.0482690     0.2828850     0.0000130
  H       -3.1457830     0.3491130    -0.0000080
  O       -1.3512910     1.2933720    -0.0000010
  N       -1.5923150    -0.9782630     0.0000040
  H       -0.5837530    -1.1752650     0.0000030
  H       -2.2528990    -1.7321960    -0.0000070
  C        1.1885468    -0.1590285     0.0000042
  H        2.2784588    -0.1852965     0.0000002
  N        0.4566408    -1.2206875     0.0000021
  H        1.0564058    -2.0370065    -0.0000038
  N        0.6763718     1.0859135     0.0000002
  H       -0.3302682     1.2358895    -0.0000008
  H        1.2922589     1.8734665    -0.0000049
