13

  C       -2.0482690     0.2828850     0.0000130
  H       -3.1457830     0.3491130    -0.0000080
  O       -1.3512910     1.2933720    -0.0000010
  N       -1.5923150    -0.9782630     0.0000040
  H       -0.5837530    -1.1752650     0.0000030
  H       -2.2528990    -1.7321960    -0.0000070
  C        1.4797339    -0.1911630     0.0000041
  H        2.5696459    -0.2174310     0.0000001
  N        0.7478279    -1.2528220     0.0000021
  H        1.3475929    -2.0691410    -0.0000039
  N        0.9675589     1.0537790     0.0000001
  H       -0.0390811     1.2037550    -0.0000009
  H        1.5834459     1.8413320    -0.0000049
