13

  C       -2.0482690     0.2828850     0.0000130
  H       -3.1457830     0.3491130    -0.0000080
  O       -1.3512910     1.2933720    -0.0000010
  N       -1.5923150    -0.9782630     0.0000040
  H       -0.5837530    -1.1752650     0.0000030
  H       -2.2528990    -1.7321960    -0.0000070
  C        2.2077015    -0.2714993     0.0000040
  H        3.2976135    -0.2977673    -0.0000000
  N        1.4757955    -1.3331583     0.0000020
  H        2.0755605    -2.1494772    -0.0000040
  N        1.6955265     0.9734428    -0.0000000
  H        0.6888865     1.1234187    -0.0000010
  H        2.3114135     1.7609957    -0.0000050
