12

  C       -1.9644470     0.1609890    -0.0000020
  H       -3.0589320     0.1627090    -0.0000040
  O       -1.3160380     1.1929960    -0.0000020
  O       -1.4968300    -1.0660630     0.0000020
  H       -0.4778920    -1.0649310     0.0000090
  C        1.7232828    -0.1722407    -0.0000031
  H        2.8050987    -0.2944657    -0.0000051
  N        0.9054918    -1.1696077    -0.0000010
  H        1.4160868    -2.0431127    -0.0000010
  N        1.3084328     1.1045833     0.0000019
  H        0.3124158     1.3031163     0.0000010
  H        1.9753527     1.8492593     0.0000039
