11

  C       -1.9521150     0.2323370    -0.0000010
  H       -3.0450720     0.2485030     0.0000010
  O       -1.2823360     1.2482650     0.0000000
  O       -1.5045270    -1.0066940    -0.0000010
  H       -0.5061810    -1.0124010    -0.0000010
  C        1.6758114    -0.2273840     0.0000029
  H        2.7585074    -0.3994100    -0.0000011
  O        0.8864224    -1.1705170    -0.0000001
  N        1.3309784     1.0657680     0.0000009
  H        0.3455734     1.3170880    -0.0000001
  H        2.0411924     1.7726480    -0.0000011
