11

  C       -1.9521150     0.2323370    -0.0000010
  H       -3.0450720     0.2485030     0.0000010
  O       -1.2823360     1.2482650     0.0000000
  O       -1.5045270    -1.0066940    -0.0000010
  H       -0.5061810    -1.0124010    -0.0000010
  C        1.8148187    -0.2370040     0.0000030
  H        2.8975147    -0.4090300    -0.0000010
  O        1.0254297    -1.1801370    -0.0000001
  N        1.4699857     1.0561480     0.0000009
  H        0.4845807     1.3074680    -0.0000001
  H        2.1801997     1.7630280    -0.0000010
