11

  C       -1.9521150     0.2323370    -0.0000010
  H       -3.0450720     0.2485030     0.0000010
  O       -1.2823360     1.2482650     0.0000000
  O       -1.5045270    -1.0066940    -0.0000010
  H       -0.5061810    -1.0124010    -0.0000010
  C        2.0928333    -0.2562440     0.0000031
  H        3.1755293    -0.4282700    -0.0000009
  O        1.3034443    -1.1993770     0.0000001
  N        1.7480003     1.0369080     0.0000010
  H        0.7625953     1.2882280     0.0000001
  H        2.4582143     1.7437880    -0.0000009
