19

  C        1.4038530    -0.9242710    -2.2785240
  H        0.3969850    -1.3157120    -2.1217180
  H        1.7518510    -1.2036250    -3.2713030
  C        2.3482240    -1.4635310    -1.1678720
  O        3.3414170    -2.1197050    -1.5522780
  O        1.9909820    -1.1681630     0.0048400
  H        1.3415390     0.1631910    -2.2067990
  C       -0.4536819     0.4969491     1.7948661
  C       -0.1584409     0.2310831     0.4566111
  C       -1.0162559     0.7222051    -0.5293999
  C       -2.1470069     1.4643381    -0.1876859
  C       -2.4321749     1.7238761     1.1524451
  C       -1.5822819     1.2382231     2.1454821
  H        0.7272601    -0.3502699     0.1882961
  H       -0.7937149     0.5200351    -1.5689369
  H       -2.8046539     1.8398121    -0.9617039
  H       -3.3090719     2.2995751     1.4205241
  H       -1.8001039     1.4375211     3.1873511
  H        0.2065421     0.1195971     2.5648931
