19

  C        1.4038530    -0.9242710    -2.2785240
  H        0.3969850    -1.3157120    -2.1217180
  H        1.7518510    -1.2036250    -3.2713030
  C        2.3482240    -1.4635310    -1.1678720
  O        3.3414170    -2.1197050    -1.5522780
  O        1.9909820    -1.1681630     0.0048400
  H        1.3415390     0.1631910    -2.2067990
  C       -1.0614371     0.9041119     2.1237425
  C       -0.7661961     0.6382459     0.7854875
  C       -1.6240111     1.1293679    -0.2005235
  C       -2.7547621     1.8715009     0.1411905
  C       -3.0399301     2.1310389     1.4813215
  C       -2.1900371     1.6453859     2.4743585
  H        0.1195049     0.0568929     0.5171725
  H       -1.4014701     0.9271979    -1.2400605
  H       -3.4124091     2.2469749    -0.6328275
  H       -3.9168271     2.7067379     1.7494005
  H       -2.4078591     1.8446839     3.5162275
  H       -0.4012131     0.5267599     2.8937695
