19

  C        1.4038530    -0.9242710    -2.2785240
  H        0.3969850    -1.3157120    -2.1217180
  H        1.7518510    -1.2036250    -3.2713030
  C        2.3482240    -1.4635310    -1.1678720
  O        3.3414170    -2.1197050    -1.5522780
  O        1.9909820    -1.1681630     0.0048400
  H        1.3415390     0.1631910    -2.2067990
  C       -0.6562669     0.6326701     1.9044915
  C       -0.3610259     0.3668041     0.5662365
  C       -1.2188409     0.8579261    -0.4197745
  C       -2.3495919     1.6000591    -0.0780605
  C       -2.6347599     1.8595971     1.2620705
  C       -1.7848669     1.3739441     2.2551075
  H        0.5246751    -0.2145489     0.2979215
  H       -0.9962999     0.6557561    -1.4593115
  H       -3.0072389     1.9755331    -0.8520785
  H       -3.5116569     2.4352961     1.5301495
  H       -2.0026889     1.5732421     3.2969765
  H        0.0039571     0.2553181     2.6745185
