16

  C        1.5781950     1.7921450     0.4576210
  C        2.2608050     0.5374330    -0.0484500
  O        3.4791990     0.3762000     0.0719210
  N        1.4271370    -0.3509430    -0.6121130
  H        1.8470760    -1.1994040    -0.9501160
  H        0.3966450    -0.1860860    -0.7016820
  H        1.6415770     1.8047550     1.5446090
  H        0.5354960     1.8408630     0.1543280
  H        2.1237730     2.6564520     0.0853730
  C       -1.7067844    -0.2250556     1.3814572
  C       -2.2034614    -0.0152766    -0.0669398
  O       -1.2861774     0.1481994    -0.9309138
  O       -3.4356264     0.0050004    -0.2425168
  H       -1.4499044     0.7453024     1.8103882
  H       -0.8059314    -0.8376467     1.4034112
  H       -2.4844244    -0.6756907     1.9941672
