16

  C        1.5781950     1.7921450     0.4576210
  C        2.2608050     0.5374330    -0.0484500
  O        3.4791990     0.3762000     0.0719210
  N        1.4271370    -0.3509430    -0.6121130
  H        1.8470760    -1.1994040    -0.9501160
  H        0.3966450    -0.1860860    -0.7016820
  H        1.6415770     1.8047550     1.5446090
  H        0.5354960     1.8408630     0.1543280
  H        2.1237730     2.6564520     0.0853730
  C       -1.4663812    -0.2728107     1.4142046
  C       -1.9630582    -0.0630317    -0.0341924
  O       -1.0457742     0.1004443    -0.8981664
  O       -3.1952232    -0.0427547    -0.2097694
  H       -1.2095012     0.6975473     1.8431356
  H       -0.5655282    -0.8854017     1.4361586
  H       -2.2440212    -0.7234457     2.0269146
