16

  C        1.5781950     1.7921450     0.4576210
  C        2.2608050     0.5374330    -0.0484500
  O        3.4791990     0.3762000     0.0719210
  N        1.4271370    -0.3509430    -0.6121130
  H        1.8470760    -1.1994040    -0.9501160
  H        0.3966450    -0.1860860    -0.7016820
  H        1.6415770     1.8047550     1.5446090
  H        0.5354960     1.8408630     0.1543280
  H        2.1237730     2.6564520     0.0853730
  C       -1.7869188    -0.2091373     1.3705414
  C       -2.2835958     0.0006417    -0.0778556
  O       -1.3663118     0.1641177    -0.9418296
  O       -3.5157608     0.0209187    -0.2534326
  H       -1.5300388     0.7612207     1.7994724
  H       -0.8860658    -0.8217283     1.3924954
  H       -2.5645588    -0.6597723     1.9832514
