16

  C        1.5781950     1.7921450     0.4576210
  C        2.2608050     0.5374330    -0.0484500
  O        3.4791990     0.3762000     0.0719210
  N        1.4271370    -0.3509430    -0.6121130
  H        1.8470760    -1.1994040    -0.9501160
  H        0.3966450    -0.1860860    -0.7016820
  H        1.6415770     1.8047550     1.5446090
  H        0.5354960     1.8408630     0.1543280
  H        2.1237730     2.6564520     0.0853730
  C       -1.5465156    -0.2568923     1.4032888
  C       -2.0431926    -0.0471134    -0.0451082
  O       -1.1259086     0.1163626    -0.9090822
  O       -3.2753576    -0.0268364    -0.2206852
  H       -1.2896356     0.7134657     1.8322198
  H       -0.6456626    -0.8694833     1.4252428
  H       -2.3241556    -0.7075273     2.0159988
