16

  C        1.5781950     1.7921450     0.4576210
  C        2.2608050     0.5374330    -0.0484500
  O        3.4791990     0.3762000     0.0719210
  N        1.4271370    -0.3509430    -0.6121130
  H        1.8470760    -1.1994040    -0.9501160
  H        0.3966450    -0.1860860    -0.7016820
  H        1.6415770     1.8047550     1.5446090
  H        0.5354960     1.8408630     0.1543280
  H        2.1237730     2.6564520     0.0853730
  C       -1.1458436    -0.3364841     1.4578678
  C       -1.6425206    -0.1267051     0.0094708
  O       -0.7252366     0.0367709    -0.8545032
  O       -2.8746856    -0.1064281    -0.1661062
  H       -0.8889636     0.6338739     1.8867988
  H       -0.2449906    -0.9490751     1.4798218
  H       -1.9234836    -0.7871191     2.0705778
