17

  C       -0.4700780     0.1015270     3.0681730
  N        0.8072040     0.1498220     2.2992800
  H        1.4036420    -0.6415730     2.5292230
  H        1.3302880     0.9964580     2.5102520
  H        0.5899640     0.1279900     1.2550110
  H       -0.9887140    -0.8116000     2.8021490
  H       -0.2582160     0.1233210     4.1308030
  H       -1.0679740     0.9582540     2.7816540
  C        1.5180470     0.1341600    -1.8585580
  C        0.1110930     0.0765460    -1.3397350
  O       -0.1443950     0.0790070    -0.1222120
  N       -0.8694600     0.0218500    -2.2426040
  H        1.5727780     0.1241310    -2.9424040
  H        2.0704670    -0.7181700    -1.4696980
  H       -1.8248530    -0.0177080    -1.9285290
  H       -0.6788240     0.0191350    -3.2276080
  H        1.9909190     1.0415740    -1.4899980
