17

  C       -0.4700780     0.1015270     3.0681730
  N        0.8072040     0.1498220     2.2992800
  H        1.4036420    -0.6415730     2.5292230
  H        1.3302880     0.9964580     2.5102520
  H        0.5899640     0.1279900     1.2550110
  H       -0.9887140    -0.8116000     2.8021490
  H       -0.2582160     0.1233210     4.1308030
  H       -1.0679740     0.9582540     2.7816540
  C        1.5547650     0.1366092    -1.7896968
  C        0.1478110     0.0789952    -1.2708738
  O       -0.1076770     0.0814561    -0.0533508
  N       -0.8327421     0.0242992    -2.1737429
  H        1.6094960     0.1265802    -2.8735428
  H        2.1071849    -0.7157208    -1.4008368
  H       -1.7881350    -0.0152588    -1.8596678
  H       -0.6421060     0.0215841    -3.1587468
  H        2.0276370     1.0440231    -1.4211368
