17

  C       -0.4700780     0.1015270     3.0681730
  N        0.8072040     0.1498220     2.2992800
  H        1.4036420    -0.6415730     2.5292230
  H        1.3302880     0.9964580     2.5102520
  H        0.5899640     0.1279900     1.2550110
  H       -0.9887140    -0.8116000     2.8021490
  H       -0.2582160     0.1233210     4.1308030
  H       -1.0679740     0.9582540     2.7816540
  C        1.6649188     0.1439566    -1.5831134
  C        0.2579648     0.0863426    -1.0642904
  O        0.0024768     0.0888036     0.1532326
  N       -0.7225882     0.0316466    -1.9671594
  H        1.7196498     0.1339276    -2.6669594
  H        2.2173388    -0.7083734    -1.1942534
  H       -1.6779812    -0.0079114    -1.6530844
  H       -0.5319522     0.0289316    -2.9521634
  H        2.1377908     1.0513706    -1.2145534
