17

  C       -0.4700780     0.1015270     3.0681730
  N        0.8072040     0.1498220     2.2992800
  H        1.4036420    -0.6415730     2.5292230
  H        1.3302880     0.9964580     2.5102520
  H        0.5899640     0.1279900     1.2550110
  H       -0.9887140    -0.8116000     2.8021490
  H       -0.2582160     0.1233210     4.1308030
  H       -1.0679740     0.9582540     2.7816540
  C        1.5914829     0.1390583    -1.7208357
  C        0.1845289     0.0814443    -1.2020127
  O       -0.0709591     0.0839053     0.0155103
  N       -0.7960241     0.0267483    -2.1048817
  H        1.6462139     0.1290293    -2.8046817
  H        2.1439029    -0.7132717    -1.3319757
  H       -1.7514171    -0.0128097    -1.7908067
  H       -0.6053881     0.0240333    -3.0898857
  H        2.0643549     1.0464723    -1.3522757
