17

  C        0.0307670    -0.4989030     1.3044080
  C        2.5910060    -1.1365460     0.6318600
  S        1.0242860    -0.7573570    -0.1794540
  H        0.4233440     0.3278670     1.8932660
  H        0.0014550    -1.4018570     1.9110230
  H        2.5002030    -2.0259620     1.2520890
  H        3.3255850    -1.3233560    -0.1472630
  H        2.9253050    -0.2973240     1.2384840
  H       -0.9789010    -0.2544170     0.9844960
  C       -1.9009000     1.6145120    -1.1949860
  C       -2.1574510     0.3399200    -1.9891470
  H       -0.8500060     1.7014950    -0.9247700
  H       -2.1699290     2.4975400    -1.7720550
  H       -2.4859830     1.6337160    -0.2764030
  H       -3.2069400     0.2504510    -2.2645770
  H       -1.8878040    -0.5469730    -1.4178930
  H       -1.5702600     0.3247480    -2.9052480
