17

  C        0.0307670    -0.4989030     1.3044080
  C        2.5910060    -1.1365460     0.6318600
  S        1.0242860    -0.7573570    -0.1794540
  H        0.4233440     0.3278670     1.8932660
  H        0.0014550    -1.4018570     1.9110230
  H        2.5002030    -2.0259620     1.2520890
  H        3.3255850    -1.3233560    -0.1472630
  H        2.9253050    -0.2973240     1.2384840
  H       -0.9789010    -0.2544170     0.9844960
  C       -1.2902077     1.2675974    -0.9124635
  C       -1.5467587    -0.0069946    -1.7066245
  H       -0.2393137     1.3545804    -0.6422475
  H       -1.5592367     2.1506254    -1.4895325
  H       -1.8752907     1.2868014     0.0061195
  H       -2.5962477    -0.0964636    -1.9820545
  H       -1.2771117    -0.8938876    -1.1353705
  H       -0.9595677    -0.0221666    -2.6227255
