17

  C        0.0307670    -0.4989030     1.3044080
  C        2.5910060    -1.1365460     0.6318600
  S        1.0242860    -0.7573570    -0.1794540
  H        0.4233440     0.3278670     1.8932660
  H        0.0014550    -1.4018570     1.9110230
  H        2.5002030    -2.0259620     1.2520890
  H        3.3255850    -1.3233560    -0.1472630
  H        2.9253050    -0.2973240     1.2384840
  H       -0.9789010    -0.2544170     0.9844960
  C       -1.5955539     1.4410547    -1.0537248
  C       -1.8521049     0.1664627    -1.8478858
  H       -0.5446599     1.5280377    -0.7835087
  H       -1.8645829     2.3240827    -1.6307938
  H       -2.1806368     1.4602587    -0.1351418
  H       -2.9015938     0.0769937    -2.1233158
  H       -1.5824579    -0.7204303    -1.2766318
  H       -1.2649139     0.1512907    -2.7639867
