17

  C        0.0307670    -0.4989030     1.3044080
  C        2.5910060    -1.1365460     0.6318600
  S        1.0242860    -0.7573570    -0.1794540
  H        0.4233440     0.3278670     1.8932660
  H        0.0014550    -1.4018570     1.9110230
  H        2.5002030    -2.0259620     1.2520890
  H        3.3255850    -1.3233560    -0.1472630
  H        2.9253050    -0.2973240     1.2384840
  H       -0.9789010    -0.2544170     0.9844960
  C       -1.7482269     1.5277833    -1.1243554
  C       -2.0047779     0.2531913    -1.9185164
  H       -0.6973329     1.6147664    -0.8541394
  H       -2.0172559     2.4108113    -1.7014244
  H       -2.3333099     1.5469873    -0.2057724
  H       -3.0542669     0.1637223    -2.1939464
  H       -1.7351309    -0.6337017    -1.3472624
  H       -1.4175869     0.2380193    -2.8346174
