17

  C        0.0307670    -0.4989030     1.3044080
  C        2.5910060    -1.1365460     0.6318600
  S        1.0242860    -0.7573570    -0.1794540
  H        0.4233440     0.3278670     1.8932660
  H        0.0014550    -1.4018570     1.9110230
  H        2.5002030    -2.0259620     1.2520890
  H        3.3255850    -1.3233560    -0.1472630
  H        2.9253050    -0.2973240     1.2384840
  H       -0.9789010    -0.2544170     0.9844960
  C       -2.0535731     1.7012406    -1.2656166
  C       -2.3101241     0.4266487    -2.0597776
  H       -1.0026791     1.7882236    -0.9954006
  H       -2.3226021     2.5842686    -1.8426856
  H       -2.6386561     1.7204447    -0.3470336
  H       -3.3596131     0.3371797    -2.3352076
  H       -2.0404771    -0.4602443    -1.4885236
  H       -1.7229331     0.4114767    -2.9758786
