17

  C        0.0307670    -0.4989030     1.3044080
  C        2.5910060    -1.1365460     0.6318600
  S        1.0242860    -0.7573570    -0.1794540
  H        0.4233440     0.3278670     1.8932660
  H        0.0014550    -1.4018570     1.9110230
  H        2.5002030    -2.0259620     1.2520890
  H        3.3255850    -1.3233560    -0.1472630
  H        2.9253050    -0.2973240     1.2384840
  H       -0.9789010    -0.2544170     0.9844960
  C       -0.9848615     1.0941401    -0.7712022
  C       -1.2414125    -0.1804519    -1.5653632
  H        0.0660325     1.1811231    -0.5009862
  H       -1.2538905     1.9771681    -1.3482712
  H       -1.5699445     1.1133441     0.1473808
  H       -2.2909015    -0.2699209    -1.8407932
  H       -0.9717655    -1.0673449    -0.9941092
  H       -0.6542215    -0.1956239    -2.4814642
