21

  C        2.1699610     1.6446270     1.6928490
  C        0.3147750     0.8043390     0.3205980
  N        1.0601800     1.8094320     0.7621420
  N       -0.6235320     1.0120660    -0.6049520
  N        0.5089320    -0.4265010     0.7877590
  H        0.7940220     2.7414260     0.4924920
  H       -0.7305790     1.9111350    -1.0389890
  H       -1.3028520     0.2993070    -0.8131410
  H        1.1480240    -0.5978660     1.5424140
  H        0.0538220    -1.2142890     0.3565080
  H        2.6892840     2.5927940     1.7675280
  H        2.8698560     0.9023290     1.3158970
  H        1.8175440     1.3648380     2.6841440
  C       -2.3053322    -1.1997621    -0.6945747
  C       -1.0483542    -1.9681211    -1.0900517
  H       -3.1130102    -1.8823511    -0.4434427
  H       -2.1567102    -0.5743671     0.1888983
  H       -2.6633422    -0.5718501    -1.5103017
  H       -0.2494012    -1.3138721    -1.4468777
  H       -1.2559972    -2.6558371    -1.9056937
  H       -0.6673902    -2.5658631    -0.2619487
