17

  C        1.8152610    -1.0285190     0.9092520
  C        2.1703290    -2.4278570     1.3964490
  H        0.7480670    -0.9357110     0.7180030
  H        2.0897920    -0.2755280     1.6465780
  H        2.3410110    -0.7904390    -0.0142380
  H        1.6472020    -2.6667650     2.3206220
  H        1.8967610    -3.1810370     0.6598660
  H        3.2379030    -2.5236880     1.5868310
  C       -0.0649372     0.8317853    -0.5274326
  C       -0.8852482     1.8765423    -1.2570706
  O       -0.8745022    -0.1741117     0.0706374
  H        0.5813948     0.3033323    -1.2246736
  H        0.5793598     1.3061953     0.2180004
  H       -0.2387262     2.6054673    -1.7443896
  H       -1.4640902     0.2668243     0.6888114
  H       -1.5306942     2.4148633    -0.5626116
  H       -1.5123022     1.4057603    -2.0108806
