20

  C        0.6334190     0.9607740    -2.6189870
  C        1.0883330    -0.4781420    -2.4123110
  H       -0.4115830     1.0004260    -2.9237610
  H        0.7353710     1.5308010    -1.6977500
  H        1.2206850     1.4541920    -3.3920330
  H        0.4983030    -0.9614310    -1.6347970
  H        0.9856540    -1.0631820    -3.3254330
  H        2.1332190    -0.5180110    -2.1086460
  C       -1.9663771     1.1232473     0.5574555
  C       -0.8553161     0.1887373     0.8879285
  C       -0.8997911    -1.1835247     1.0181935
  C        1.1411409    -0.4378957     1.3736895
  N        0.4235029     0.6412933     1.1131805
  N        0.3805109    -1.5646467     1.3295835
  H       -2.1067851     1.8510523     1.3550765
  H       -2.8998261     0.5813933     0.4175705
  H       -1.7037671    -1.8906117     0.9218875
  H        2.1935589    -0.4593197     1.5978955
  H        0.7006009    -2.5043077     1.4871755
  H       -1.7471521     1.6731433    -0.3565095
