20

  C        0.6334190     0.9607740    -2.6189870
  C        1.0883330    -0.4781420    -2.4123110
  H       -0.4115830     1.0004260    -2.9237610
  H        0.7353710     1.5308010    -1.6977500
  H        1.2206850     1.4541920    -3.3920330
  H        0.4983030    -0.9614310    -1.6347970
  H        0.9856540    -1.0631820    -3.3254330
  H        2.1332190    -0.5180110    -2.1086460
  C       -2.0055612     1.0893176     0.7317491
  C       -0.8945002     0.1548076     1.0622221
  C       -0.9389752    -1.2174544     1.1924871
  C        1.1019568    -0.4718254     1.5479831
  N        0.3843188     0.6073636     1.2874741
  N        0.3413268    -1.5985764     1.5038771
  H       -2.1459692     1.8171226     1.5293701
  H       -2.9390102     0.5474636     0.5918641
  H       -1.7429512    -1.9245414     1.0961811
  H        2.1543748    -0.4932494     1.7721891
  H        0.6614168    -2.5382374     1.6614691
  H       -1.7863362     1.6392136    -0.1822159
