20

  C       -0.8432620     1.0987080     0.2651690
  C       -2.0032850     2.0681030     0.2046330
  C        0.1135230     1.4296950     1.3968010
  O       -1.4174680    -0.1955080     0.4434840
  H       -0.3003160     1.1318560    -0.6860790
  H       -1.6474550     3.0836900     0.0401140
  H       -0.4192520     1.4066990     2.3465170
  H        0.9281950     0.7067830     1.4425940
  H        0.5490570     2.4194720     1.2623770
  H       -0.6927440    -0.8281530     0.4619750
  H       -2.5548080     2.0375650     1.1433060
  H       -2.6808250     1.7980240    -0.6020370
  C        1.8615291    -1.9754829    -0.8223317
  C        2.9304911    -2.8110599    -1.5155427
  H        2.1643721    -0.9322239    -0.7479177
  H        0.9214371    -2.0098839    -1.3712337
  H        1.6778651    -2.3417209     0.1876103
  H        2.6274461    -3.8534609    -1.5898827
  H        3.8713301    -2.7770689    -0.9699017
  H        3.1184511    -2.4479029    -2.5238947
