20

  C       -0.8432620     1.0987080     0.2651690
  C       -2.0032850     2.0681030     0.2046330
  C        0.1135230     1.4296950     1.3968010
  O       -1.4174680    -0.1955080     0.4434840
  H       -0.3003160     1.1318560    -0.6860790
  H       -1.6474550     3.0836900     0.0401140
  H       -0.4192520     1.4066990     2.3465170
  H        0.9281950     0.7067830     1.4425940
  H        0.5490570     2.4194720     1.2623770
  H       -0.6927440    -0.8281530     0.4619750
  H       -2.5548080     2.0375650     1.1433060
  H       -2.6808250     1.7980240    -0.6020370
  C        0.8779687    -0.8575953    -0.4268769
  C        1.9469307    -1.6931723    -1.1200879
  H        1.1808117     0.1856637    -0.3524629
  H       -0.0621233    -0.8919963    -0.9757789
  H        0.6943047    -1.2238333     0.5830651
  H        1.6438857    -2.7355733    -1.1944279
  H        2.8877697    -1.6591813    -0.5744469
  H        2.1348907    -1.3300153    -2.1284399
