20

  C       -0.8432620     1.0987080     0.2651690
  C       -2.0032850     2.0681030     0.2046330
  C        0.1135230     1.4296950     1.3968010
  O       -1.4174680    -0.1955080     0.4434840
  H       -0.3003160     1.1318560    -0.6860790
  H       -1.6474550     3.0836900     0.0401140
  H       -0.4192520     1.4066990     2.3465170
  H        0.9281950     0.7067830     1.4425940
  H        0.5490570     2.4194720     1.2623770
  H       -0.6927440    -0.8281530     0.4619750
  H       -2.5548080     2.0375650     1.1433060
  H       -2.6808250     1.7980240    -0.6020370
  C        1.3697489    -1.4165391    -0.6246043
  C        2.4387109    -2.2521161    -1.3178153
  H        1.6725919    -0.3732801    -0.5501903
  H        0.4296569    -1.4509401    -1.1735063
  H        1.1860849    -1.7827771     0.3853377
  H        2.1356659    -3.2945171    -1.3921553
  H        3.3795499    -2.2181251    -0.7721743
  H        2.6266709    -1.8889591    -2.3261673
