16

  C        0.5569670    -1.7924800    -2.1124950
  C        1.6322320    -2.2054920     0.3569710
  S        2.1107830    -2.3624970    -1.3810050
  H        0.7245280    -1.6791220    -3.1822880
  H       -0.2276430    -2.5326360    -1.9571660
  H        0.2583640    -0.8351930    -1.6767230
  H        0.8852190    -2.9567050     0.6122810
  H        1.2390850    -1.2053620     0.5573980
  H        2.5242910    -2.3813570     0.9558800
  C       -0.9217694     1.6106694     0.8478556
  C        0.0170386     0.5149714     0.2853466
  O        0.7982796    -0.0279716     1.1064006
  O       -0.1064754     0.2918494    -0.9462554
  H       -1.9559454     1.3643264     0.6053566
  H       -0.6971164     2.5601594     0.3601206
  H       -0.8100224     1.7199754     1.9249576
