16

  C        0.5569670    -1.7924800    -2.1124950
  C        1.6322320    -2.2054920     0.3569710
  S        2.1107830    -2.3624970    -1.3810050
  H        0.7245280    -1.6791220    -3.1822880
  H       -0.2276430    -2.5326360    -1.9571660
  H        0.2583640    -0.8351930    -1.6767230
  H        0.8852190    -2.9567050     0.6122810
  H        1.2390850    -1.2053620     0.5573980
  H        2.5242910    -2.3813570     0.9558800
  C       -1.6146627     2.4401526     0.9837149
  C       -0.6758547     1.3444547     0.4212059
  O        0.1053863     0.8015117     1.2422598
  O       -0.7993687     1.1213327    -0.8103961
  H       -2.6488387     2.1938096     0.7412159
  H       -1.3900097     3.3896426     0.4959799
  H       -1.5029157     2.5494587     2.0608169
