16

  C        0.5569670    -1.7924800    -2.1124950
  C        1.6322320    -2.2054920     0.3569710
  S        2.1107830    -2.3624970    -1.3810050
  H        0.7245280    -1.6791220    -3.1822880
  H       -0.2276430    -2.5326360    -1.9571660
  H        0.2583640    -0.8351930    -1.6767230
  H        0.8852190    -2.9567050     0.6122810
  H        1.2390850    -1.2053620     0.5573980
  H        2.5242910    -2.3813570     0.9558800
  C       -0.6446121     1.2788761     0.7935119
  C        0.2941959     0.1831781     0.2310029
  O        1.0754369    -0.3597649     1.0520569
  O        0.1706819    -0.0399439    -1.0005991
  H       -1.6787881     1.0325331     0.5510129
  H       -0.4199591     2.2283661     0.3057769
  H       -0.5328651     1.3881821     1.8706139
