16

  C        0.5569670    -1.7924800    -2.1124950
  C        1.6322320    -2.2054920     0.3569710
  S        2.1107830    -2.3624970    -1.3810050
  H        0.7245280    -1.6791220    -3.1822880
  H       -0.2276430    -2.5326360    -1.9571660
  H        0.2583640    -0.8351930    -1.6767230
  H        0.8852190    -2.9567050     0.6122810
  H        1.2390850    -1.2053620     0.5573980
  H        2.5242910    -2.3813570     0.9558800
  C       -1.3375053     2.1083593     0.9293712
  C       -0.3986973     1.0126613     0.3668621
  O        0.3825437     0.4697183     1.1879161
  O       -0.5222113     0.7895393    -0.8647398
  H       -2.3716814     1.8620163     0.6868722
  H       -1.1128523     3.0578493     0.4416361
  H       -1.2257583     2.2176653     2.0064731
