19

  C        0.8771060     3.8154390     2.0269190
  C        0.6800720     2.4760620     1.2983830
  O        1.3267190     1.4882620     1.6990730
  O       -0.1479420     2.5178870     0.3331480
  H        1.2227690     4.5668470     1.3172000
  H        1.5932120     3.7189770     2.8394950
  H       -0.0802770     4.1601790     2.4172620
  C        0.3517664    -3.5205568    -1.3073027
  C       -0.0789936    -2.0922858    -1.2895006
  C        0.3279624    -1.0830028    -0.4343886
  C       -1.1202106    -0.3170738    -1.8664736
  N       -0.9931006    -1.6056888    -2.1922947
  N       -0.3458496     0.0390212    -0.8176707
  H        1.0780494    -3.7113128    -0.5176307
  H        0.8106024    -3.7838818    -2.2615177
  H        1.0161394    -1.0522038     0.3920813
  H       -1.7634376     0.3864322    -2.3682476
  H       -0.2596956     1.0002842    -0.3602647
  H       -0.4956016    -4.1915748    -1.1586486
