19

  C        0.8771060     3.8154390     2.0269190
  C        0.6800720     2.4760620     1.2983830
  O        1.3267190     1.4882620     1.6990730
  O       -0.1479420     2.5178870     0.3331480
  H        1.2227690     4.5668470     1.3172000
  H        1.5932120     3.7189770     2.8394950
  H       -0.0802770     4.1601790     2.4172620
  C        0.3624096    -3.3760232    -1.2412634
  C       -0.0683504    -1.9477522    -1.2234614
  C        0.3386056    -0.9384692    -0.3683493
  C       -1.1095674    -0.1725402    -1.8004343
  N       -0.9824574    -1.4611552    -2.1262554
  N       -0.3352064     0.1835548    -0.7516313
  H        1.0886926    -3.5667792    -0.4515914
  H        0.8212456    -3.6393482    -2.1954784
  H        1.0267826    -0.9076702     0.4581207
  H       -1.7527944     0.5309658    -2.3022083
  H       -0.2490524     1.1448178    -0.2942253
  H       -0.4849584    -4.0470412    -1.0926094
