19

  C        0.8771060     3.8154390     2.0269190
  C        0.6800720     2.4760620     1.2983830
  O        1.3267190     1.4882620     1.6990730
  O       -0.1479420     2.5178870     0.3331480
  H        1.2227690     4.5668470     1.3172000
  H        1.5932120     3.7189770     2.8394950
  H       -0.0802770     4.1601790     2.4172620
  C        0.3570880    -3.4482900    -1.2742830
  C       -0.0736720    -2.0200190    -1.2564810
  C        0.3332840    -1.0107360    -0.4013690
  C       -1.1148890    -0.2448070    -1.8334540
  N       -0.9877790    -1.5334220    -2.1592750
  N       -0.3405280     0.1112880    -0.7846510
  H        1.0833710    -3.6390460    -0.4846110
  H        0.8159240    -3.7116150    -2.2284980
  H        1.0214610    -0.9799370     0.4251010
  H       -1.7581160     0.4586990    -2.3352280
  H       -0.2543740     1.0725510    -0.3272450
  H       -0.4902800    -4.1193080    -1.1256290
