19

  C        0.8771060     3.8154390     2.0269190
  C        0.6800720     2.4760620     1.2983830
  O        1.3267190     1.4882620     1.6990730
  O       -0.1479420     2.5178870     0.3331480
  H        1.2227690     4.5668470     1.3172000
  H        1.5932120     3.7189770     2.8394950
  H       -0.0802770     4.1601790     2.4172620
  C        0.3677312    -3.3037564    -1.2082437
  C       -0.0630288    -1.8754854    -1.1904417
  C        0.3439272    -0.8662024    -0.3353297
  C       -1.1042458    -0.1002734    -1.7674147
  N       -0.9771358    -1.3888884    -2.0932357
  N       -0.3298848     0.2558216    -0.7186117
  H        1.0940142    -3.4945124    -0.4185717
  H        0.8265672    -3.5670814    -2.1624587
  H        1.0321042    -0.8354034     0.4911403
  H       -1.7474728     0.6032326    -2.2691887
  H       -0.2437308     1.2170846    -0.2612057
  H       -0.4796368    -3.9747744    -1.0595897
