19

  C        0.8771060     3.8154390     2.0269190
  C        0.6800720     2.4760620     1.2983830
  O        1.3267190     1.4882620     1.6990730
  O       -0.1479420     2.5178870     0.3331480
  H        1.2227690     4.5668470     1.3172000
  H        1.5932120     3.7189770     2.8394950
  H       -0.0802770     4.1601790     2.4172620
  C        0.3464448    -3.5928236    -1.3403223
  C       -0.0843152    -2.1645526    -1.3225203
  C        0.3226408    -1.1552696    -0.4674083
  C       -1.1255322    -0.3893406    -1.8994933
  N       -0.9984222    -1.6779556    -2.2253143
  N       -0.3511712    -0.0332456    -0.8506903
  H        1.0727278    -3.7835796    -0.5506503
  H        0.8052808    -3.8561486    -2.2945373
  H        1.0108178    -1.1244706     0.3590617
  H       -1.7687592     0.3141654    -2.4012673
  H       -0.2650172     0.9280174    -0.3932843
  H       -0.5009232    -4.2638416    -1.1916683
