18

  C       -1.9865710    -1.5326940     1.5182480
  C       -2.0220640    -0.0779650     1.9200420
  O       -0.9531140    -1.6867260     0.5410100
  H       -1.7801280    -2.1602370     2.3874860
  H       -2.9500390    -1.8351870     1.1023660
  H       -1.0691780     0.2192140     2.3519930
  H       -0.8911000    -2.6195280     0.3179850
  H       -2.8043190     0.0903080     2.6576740
  H       -2.2202100     0.5521460     1.0557520
  C        1.4128602     0.7979896     0.6222722
  C        0.8034782     1.0807216    -0.7329488
  O        1.1904352     1.9983236    -1.4422518
  N       -0.2168628     0.2546956    -1.0833948
  H        1.1305252    -0.1738724     1.0184302
  H        1.0868502     1.5724456     1.3144352
  H       -0.6550118     0.4117246    -1.9731618
  H       -0.5123748    -0.5126284    -0.5019948
  H        2.4932822     0.8663136     0.5356012
