18

  C       -1.9865710    -1.5326940     1.5182480
  C       -2.0220640    -0.0779650     1.9200420
  O       -0.9531140    -1.6867260     0.5410100
  H       -1.7801280    -2.1602370     2.3874860
  H       -2.9500390    -1.8351870     1.1023660
  H       -1.0691780     0.2192140     2.3519930
  H       -0.8911000    -2.6195280     0.3179850
  H       -2.8043190     0.0903080     2.6576740
  H       -2.2202100     0.5521460     1.0557520
  C        1.5230450     1.0915140     0.3615210
  C        0.9136630     1.3742460    -0.9937000
  O        1.3006200     2.2918480    -1.7030030
  N       -0.1066780     0.5482200    -1.3441460
  H        1.2407100     0.1196520     0.7576790
  H        1.1970350     1.8659700     1.0536840
  H       -0.5448270     0.7052490    -2.2339130
  H       -0.4021900    -0.2191040    -0.7627460
  H        2.6034670     1.1598380     0.2748500
