18

  C       -1.9865710    -1.5326940     1.5182480
  C       -2.0220640    -0.0779650     1.9200420
  O       -0.9531140    -1.6867260     0.5410100
  H       -1.7801280    -2.1602370     2.3874860
  H       -2.9500390    -1.8351870     1.1023660
  H       -1.0691780     0.2192140     2.3519930
  H       -0.8911000    -2.6195280     0.3179850
  H       -2.8043190     0.0903080     2.6576740
  H       -2.2202100     0.5521460     1.0557520
  C        1.3577678     0.6512274     0.7526478
  C        0.7483858     0.9339594    -0.6025732
  O        1.1353428     1.8515614    -1.3118762
  N       -0.2719552     0.1079334    -0.9530192
  H        1.0754328    -0.3206346     1.1488058
  H        1.0317578     1.4256834     1.4448108
  H       -0.7101042     0.2649624    -1.8427862
  H       -0.5674672    -0.6593906    -0.3716192
  H        2.4381898     0.7195514     0.6659768
