  8
#Generated by chemFileConvert.py
  N        0.0091510     1.6036450     0.0000000
  H       -0.2004940     2.1771940     0.8064310
  H       -0.2004940     2.1771940    -0.8064310
  H       -0.6735580     0.8550180     0.0000000
  N        0.0240694    -1.7265782     0.0000000
  H        0.2337144    -2.3001272     0.8064310
  H        0.7067783    -0.9779512     0.0000000
  H        0.2337144    -2.3001272    -0.8064310
