  8
#Generated by chemFileConvert.py
  N        0.0091510     1.6036450     0.0000000
  H       -0.2004940     2.1771940     0.8064310
  H       -0.2004940     2.1771940    -0.8064310
  H       -0.6735580     0.8550180     0.0000000
  N       -0.0423714    -1.4807118     0.0000000
  H        0.1672736    -2.0542608     0.8064310
  H        0.6403376    -0.7320848     0.0000000
  H        0.1672736    -2.0542608    -0.8064310
