  8
#Generated by chemFileConvert.py
  N        0.0091510     1.6036450     0.0000000
  H       -0.2004940     2.1771940     0.8064310
  H       -0.2004940     2.1771940    -0.8064310
  H       -0.6735580     0.8550180     0.0000000
  N       -0.0755917    -1.3577787     0.0000000
  H        0.1340533    -1.9313277     0.8064310
  H        0.6071173    -0.6091517     0.0000000
  H        0.1340533    -1.9313277    -0.8064310
