16

  C        0.6776760    -0.6388450     1.2094730
  H        0.6753660    -1.1754370     2.1481080
  C        0.6720460     0.7552150     1.2021180
  H        0.6665030     1.3049040     2.1366780
  C        0.6732830     1.4456060    -0.0088890
  H        0.6686350     2.5300200    -0.0093310
  C        0.6800770     0.7413190    -1.2130410
  H        0.6812090     1.2733520    -2.1580190
  C        0.6857920    -0.6528240    -1.2052090
  H        0.6883220    -1.1982510    -2.1421160
  C        0.6844700    -1.3428400     0.0060610
  H        0.6838300    -2.4238230     0.0128500
  N       -2.6478024    -0.2807036    -0.0449728
  H       -2.9416674     0.1178414     0.8374382
  H       -2.8925524     0.4040714    -0.7485438
  H       -1.6351674    -0.2924506    -0.0161358
