16

  C        0.6776760    -0.6388450     1.2094730
  H        0.6753660    -1.1754370     2.1481080
  C        0.6720460     0.7552150     1.2021180
  H        0.6665030     1.3049040     2.1366780
  C        0.6732830     1.4456060    -0.0088890
  H        0.6686350     2.5300200    -0.0093310
  C        0.6800770     0.7413190    -1.2130410
  H        0.6812090     1.2733520    -2.1580190
  C        0.6857920    -0.6528240    -1.2052090
  H        0.6883220    -1.1982510    -2.1421160
  C        0.6844700    -1.3428400     0.0060610
  H        0.6838300    -2.4238230     0.0128500
  N       -2.9049200    -0.3188950    -0.0465900
  H       -3.1987850     0.0796500     0.8358210
  H       -3.1496700     0.3658800    -0.7501610
  H       -1.8922850    -0.3306420    -0.0177530
