 10
#Generated by chemFileConvert.py
  C        0.7924740    -1.5467550     0.0000000
  H        1.3467940    -1.6398920    -0.9228900
  H        1.3467940    -1.6398920     0.9228900
  C       -0.5228490    -1.3312210     0.0000000
  H       -1.0782620    -1.2392390     0.9221930
  H       -1.0782620    -1.2392390    -0.9221930
  N       -0.0951488     1.4396868     0.0000000
  H        0.3254542     1.8817858    -0.8067990
  H        0.2377422     0.4835278     0.0000000
  H        0.3254542     1.8817858     0.8067990
