 12
#Generated by chemFileConvert.py
  C       -2.3197370     0.6659460     0.0000000
  H       -2.3184330     1.2278030     0.9228290
  H       -2.3184330     1.2278020    -0.9228300
  C       -2.3197370    -0.6659460     0.0000000
  H       -2.3184330    -1.2278030    -0.9228290
  H       -2.3184330    -1.2278020     0.9228300
  C        2.0877633     0.6659460     0.0000000
  H        2.0864593     1.2278020     0.9228300
  H        2.0864593     1.2278030    -0.9228290
  C        2.0877633    -0.6659460     0.0000000
  H        2.0864593    -1.2278020    -0.9228300
  H        2.0864593    -1.2278030     0.9228290
