 12
#Generated by chemFileConvert.py
  C       -2.3197370     0.6659460     0.0000000
  H       -2.3184330     1.2278030     0.9228290
  H       -2.3184330     1.2278020    -0.9228300
  C       -2.3197370    -0.6659460     0.0000000
  H       -2.3184330    -1.2278030    -0.9228290
  H       -2.3184330    -1.2278020     0.9228300
  C        0.9278948     0.6659460     0.0000000
  H        0.9265908     1.2278020     0.9228300
  H        0.9265908     1.2278030    -0.9228290
  C        0.9278948    -0.6659460     0.0000000
  H        0.9265908    -1.2278020    -0.9228300
  H        0.9265908    -1.2278030     0.9228290
