 12
#Generated by chemFileConvert.py
  C        0.0000000     0.6662610    -1.9343090
  H       -0.9233440     1.2275940    -1.9358660
  H        0.9233440     1.2275940    -1.9358660
  C        0.0000000    -0.6662610    -1.9343090
  H        0.9233440    -1.2275940    -1.9358660
  H       -0.9233440    -1.2275940    -1.9358660
  C        0.0000000    -0.6659650     1.7882295
  H        0.0000000    -1.2296240     2.7102665
  H        0.0000000    -1.2209910     0.8609805
  C        0.0000000     0.6659650     1.7882295
  H        0.0000000     1.2209910     0.8609805
  H        0.0000000     1.2296240     2.7102665
