 12
#Generated by chemFileConvert.py
  C        0.0000000     0.6662600     1.8859180
  H        0.0000000     1.2302490     0.9638970
  H        0.0000000     1.2269270     2.8096320
  C        0.0000000    -0.6662600     1.8859180
  H        0.0000000    -1.2302490     0.9638970
  H        0.0000000    -1.2269270     2.8096320
  C       -0.6662600     0.0000000    -2.0745098
  H       -1.2302490     0.0000000    -1.1524888
  H       -1.2269270     0.0000000    -2.9982238
  C        0.6662600     0.0000000    -2.0745098
  H        1.2302490     0.0000000    -1.1524888
  H        1.2269270     0.0000000    -2.9982238
