 10
#Generated by chemFileConvert.py
  C       -0.7860890    -1.3685120     0.0000000
  H       -0.2293110    -1.4682550     0.9203500
  H       -0.2293110    -1.4682550    -0.9203500
  C       -2.0969680    -1.1285900     0.0000000
  H       -2.6507230    -1.0295500    -0.9227190
  H       -2.6507230    -1.0295500     0.9227190
  O        1.8211891     0.4689596     0.0000000
  C        1.0015961     1.3610926     0.0000000
  H        1.3001871     2.4206666     0.0000000
  H       -0.0786089     1.1543086     0.0000000
