 10
#Generated by chemFileConvert.py
  C       -0.7860890    -1.3685120     0.0000000
  H       -0.2293110    -1.4682550     0.9203500
  H       -0.2293110    -1.4682550    -0.9203500
  C       -2.0969680    -1.1285900     0.0000000
  H       -2.6507230    -1.0295500    -0.9227190
  H       -2.6507230    -1.0295500     0.9227190
  O        1.9391025     0.8894297     0.0000000
  C        1.1195095     1.7815627     0.0000000
  H        1.4181004     2.8411367     0.0000000
  H        0.0393045     1.5747787     0.0000000
