 10
#Generated by chemFileConvert.py
  C       -0.7860890    -1.3685120     0.0000000
  H       -0.2293110    -1.4682550     0.9203500
  H       -0.2293110    -1.4682550    -0.9203500
  C       -2.0969680    -1.1285900     0.0000000
  H       -2.6507230    -1.0295500    -0.9227190
  H       -2.6507230    -1.0295500     0.9227190
  O        1.7425802     0.1886462     0.0000000
  C        0.9229872     1.0807792     0.0000000
  H        1.2215782     2.1403532     0.0000000
  H       -0.1572178     0.8739952     0.0000000
