  8
#Generated by chemFileConvert.py
  C        1.1079850    -1.0583980     0.0000000
  O        0.0856860    -1.7103220     0.0000000
  H        1.6019950    -0.7504830     0.9318280
  H        1.6019950    -0.7504830    -0.9318280
  C       -0.7716972     0.5508516     0.0000000
  O        0.4060238     0.8405526     0.0000000
  H       -1.5518852     1.3252736     0.0000000
  H       -1.1071302    -0.4957644     0.0000000
