 13
#Generated by chemFileConvert.py
  C       -1.3036760    -2.0643770    -0.0221170
  H       -2.1657060    -1.4060970    -0.0635580
  H       -0.7292850    -1.8503090     0.8737980
  H       -0.6819310    -1.9005200    -0.8967860
  H       -1.6363680    -3.0974680    -0.0018740
  C       -0.1136879     1.0868686     0.0209201
  C        1.3004391     0.5124986    -0.0014779
  H       -0.0981739     2.1740546    -0.0338999
  H       -0.6997479     0.7251136    -0.8219949
  H       -0.6375079     0.8059406     0.9338801
  H        1.8240421     0.7916806    -0.9138319
  H        1.8895201     0.8753626     0.8384901
  H        1.2869401    -0.5742564     0.0501961
