 13
#Generated by chemFileConvert.py
  C       -1.3036760    -2.0643770    -0.0221170
  H       -2.1657060    -1.4060970    -0.0635580
  H       -0.7292850    -1.8503090     0.8737980
  H       -0.6819310    -1.9005200    -0.8967860
  H       -1.6363680    -3.0974680    -0.0018740
  C       -0.0475775     1.2619378     0.0233110
  C        1.3665496     0.6875678     0.0009130
  H       -0.0320635     2.3491238    -0.0315090
  H       -0.6336375     0.9001828    -0.8196039
  H       -0.5713975     0.9810098     0.9362710
  H        1.8901526     0.9667498    -0.9114410
  H        1.9556305     1.0504318     0.8408811
  H        1.3530505    -0.3991872     0.0525870
