 10
#Generated by chemFileConvert.py
  C        1.8956650     0.0000000    -0.0000020
  H        1.5300050    -0.2353560    -0.9945130
  H        1.5337900    -0.7438680     0.7027420
  H        1.5344330     0.9802750     0.2944970
  H        2.9811320    -0.0010490    -0.0027190
  C       -1.5165311     0.0000027    -0.0000029
  H       -2.6020001     0.0017417     0.0022911
  H       -1.1538821     0.7459837    -0.7000939
  H       -1.1511341     0.2317777     0.9954461
  H       -1.1558171    -0.9795243    -0.2976189
