 10
#Generated by chemFileConvert.py
  C        1.8956650     0.0000000    -0.0000020
  H        1.5300050    -0.2353560    -0.9945130
  H        1.5337900    -0.7438680     0.7027420
  H        1.5344330     0.9802750     0.2944970
  H        2.9811320    -0.0010490    -0.0027190
  C       -2.2747969     0.0000033    -0.0000031
  H       -3.3602659     0.0017423     0.0022909
  H       -1.9121479     0.7459843    -0.7000941
  H       -1.9093999     0.2317783     0.9954459
  H       -1.9140829    -0.9795237    -0.2976191
