 20
#Generated by chemFileConvert.py
  C        1.2657960    -1.1513420     0.6961700
  C        1.2657960    -1.1513420    -0.6961700
  N        0.2868380    -1.7193580    -1.4145330
  C       -0.6946480    -2.2772160    -0.6967370
  C       -0.6946480    -2.2772160     0.6967370
  N        0.2868380    -1.7193580     1.4145330
  H        2.0746680    -0.6884590     1.2471300
  H        2.0746680    -0.6884590    -1.2471300
  H       -1.5043780    -2.7383970    -1.2475190
  H       -1.5043780    -2.7383970     1.2475190
  C        0.6536172     1.1652115    -1.1300600
  C       -0.5273348     0.4264255    -1.1306390
  N       -1.1380958     0.0488465     0.0000000
  C       -0.5273348     0.4264255     1.1306390
  C        0.6536172     1.1652115     1.1300600
  N        1.2619722     1.5476425     0.0000000
  H        1.1215252     1.4564615    -2.0619750
  H       -0.9896848     0.1267415    -2.0623050
  H       -0.9896848     0.1267415     2.0623050
  H        1.1215252     1.4564615     2.0619750
