 20
#Generated by chemFileConvert.py
  C        1.2657960    -1.1513420     0.6961700
  C        1.2657960    -1.1513420    -0.6961700
  N        0.2868380    -1.7193580    -1.4145330
  C       -0.6946480    -2.2772160    -0.6967370
  C       -0.6946480    -2.2772160     0.6967370
  N        0.2868380    -1.7193580     1.4145330
  H        2.0746680    -0.6884590     1.2471300
  H        2.0746680    -0.6884590    -1.2471300
  H       -1.5043780    -2.7383970    -1.2475190
  H       -1.5043780    -2.7383970     1.2475190
  C        0.3628412     1.9315628    -1.1300600
  C       -0.8181108     1.1927767    -1.1306390
  N       -1.4288718     0.8151977     0.0000000
  C       -0.8181108     1.1927767     1.1306390
  C        0.3628412     1.9315628     1.1300600
  N        0.9711962     2.3139937     0.0000000
  H        0.8307492     2.2228127    -2.0619750
  H       -1.2804608     0.8930927    -2.0623050
  H       -1.2804608     0.8930927     2.0623050
  H        0.8307492     2.2228127     2.0619750
