14

O	-2.082721000	-0.700961000	-0.103840000
H	-2.755879000	-1.356631000	0.089863000
C	-2.649591000	0.597883000	0.077636000
H	-1.844037000	1.305235000	-0.082881000
H	-3.445794000	0.784509000	-0.641825000
H	-3.037346000	0.726501000	1.087594000
C	1.259547000	0.128682000	-0.010124000
O	0.661645000	1.182920000	-0.073313000
O	0.654692000	-1.067576000	0.025697000
H	-0.315438000	-0.911652000	-0.013274000
C	2.753797000	-0.009180000	0.037051000
H	3.211726000	0.972451000	0.017100000
H	3.043486000	-0.541464000	0.940016000
H	3.091842000	-0.598319000	-0.812323000
