14

O	-2.082721000	-0.700961000	-0.103840000
H	-2.755879000	-1.356631000	0.089863000
C	-2.649591000	0.597883000	0.077636000
H	-1.844037000	1.305235000	-0.082881000
H	-3.445794000	0.784509000	-0.641825000
H	-3.037346000	0.726501000	1.087594000
C	1.436275300	0.107612900	-0.001067400
O	0.838373300	1.161850900	-0.064256400
O	0.831420300	-1.088645100	0.034753600
H	-0.138709700	-0.932721100	-0.004217400
C	2.930525300	-0.030249100	0.046107600
H	3.388454300	0.951381900	0.026156600
H	3.220214300	-0.562533100	0.949072600
H	3.268570300	-0.619388100	-0.803266400
