14

O	-2.082721000	-0.700961000	-0.103840000
H	-2.755879000	-1.356631000	0.089863000
C	-2.649591000	0.597883000	0.077636000
H	-1.844037000	1.305235000	-0.082881000
H	-3.445794000	0.784509000	-0.641825000
H	-3.037346000	0.726501000	1.087594000
C	1.347911150	0.118147450	-0.005595700
O	0.750009150	1.172385450	-0.068784700
O	0.743056150	-1.078110550	0.030225300
H	-0.227073850	-0.922186550	-0.008745700
C	2.842161150	-0.019714550	0.041579300
H	3.300090150	0.961916450	0.021628300
H	3.131850150	-0.551998550	0.944544300
H	3.180206150	-0.608853550	-0.807794700
