14

O	2.581880000	0.694260000	0.000103000
H	3.472630000	1.050868000	-0.000055000
C	2.689586000	-0.725514000	0.000105000
H	1.677080000	-1.116196000	0.000186000
H	3.205743000	-1.095227000	-0.887199000
H	3.205894000	-1.095214000	0.887327000
C	-0.985503800	-0.205852600	0.000095400
O	-0.394353800	-1.261582600	-0.000133600
O	-2.340718800	-0.138683600	0.000525400
H	-2.640445800	-1.059647600	0.000592400
C	-0.371389800	1.158522400	-0.000003600
H	0.709935200	1.082734400	-0.000646600
H	-0.713474800	1.705193400	-0.876016600
H	-0.712419800	1.704801400	0.876669400
