12

O	1.627909000	0.490333000	-0.136887000
H	0.901577000	-0.126868000	0.014692000
C	2.837225000	-0.216036000	0.071633000
H	3.650938000	0.482861000	-0.099857000
H	2.925499000	-0.596325000	1.091319000
H	2.955720000	-1.051301000	-0.621744000
C	-1.404082100	1.157902100	0.025827800
S	-1.263633100	-0.653863900	0.067775800
H	-1.288654100	-0.843835900	-1.254485200
H	-2.333133100	1.461646100	-0.444750200
H	-1.410634100	1.482062100	1.062411800
H	-0.550264100	1.602150100	-0.475032200
