12

O	1.627909000	0.490333000	-0.136887000
H	0.901577000	-0.126868000	0.014692000
C	2.837225000	-0.216036000	0.071633000
H	3.650938000	0.482861000	-0.099857000
H	2.925499000	-0.596325000	1.091319000
H	2.955720000	-1.051301000	-0.621744000
C	-1.764950450	1.070069450	0.034675100
S	-1.624501450	-0.741696550	0.076623100
H	-1.649522450	-0.931668550	-1.245637900
H	-2.694001450	1.373813450	-0.435902900
H	-1.771502450	1.394229450	1.071259100
H	-0.911132450	1.514317450	-0.466184900
