12

O	1.627909000	0.490333000	-0.136887000
H	0.901577000	-0.126868000	0.014692000
C	2.837225000	-0.216036000	0.071633000
H	3.650938000	0.482861000	-0.099857000
H	2.925499000	-0.596325000	1.091319000
H	2.955720000	-1.051301000	-0.621744000
C	-0.922924300	1.275012300	0.014031400
S	-0.782475300	-0.536753700	0.055979400
H	-0.807496300	-0.726725700	-1.266281600
H	-1.851975300	1.578756300	-0.456546600
H	-0.929476300	1.599172300	1.050615400
H	-0.069106300	1.719260300	-0.486828600
