12

O	-1.405209000	-0.000979000	0.718704000
H	-2.199674000	-0.001509000	1.257061000
C	-1.812915000	0.000846000	-0.641952000
H	-0.905956000	0.001409000	-1.238394000
H	-2.394206000	-0.886027000	-0.899695000
H	-2.393814000	0.888632000	-0.897432000
C	1.721329324	-0.666304820	-0.006006279
H	2.553769324	-1.229426820	-0.403925279
H	0.883245324	-1.216218820	0.397291721
C	1.721325324	0.666328180	-0.004399279
H	2.553758324	1.230417180	-0.400959279
H	0.883239324	1.215260180	0.400230721
