12

O	-1.405209000	-0.000979000	0.718704000
H	-2.199674000	-0.001509000	1.257061000
C	-1.812915000	0.000846000	-0.641952000
H	-0.905956000	0.001409000	-1.238394000
H	-2.394206000	-0.886027000	-0.899695000
H	-2.393814000	0.888632000	-0.897432000
C	1.876509000	-0.666300000	-0.009110000
H	2.708949000	-1.229422000	-0.407029000
H	1.038425000	-1.216214000	0.394188000
C	1.876505000	0.666333000	-0.007503000
H	2.708938000	1.230422000	-0.404063000
H	1.038419000	1.215265000	0.397127000
