12

O	-1.405209000	-0.000979000	0.718704000
H	-2.199674000	-0.001509000	1.257061000
C	-1.812915000	0.000846000	-0.641952000
H	-0.905956000	0.001409000	-1.238394000
H	-2.394206000	-0.886027000	-0.899695000
H	-2.393814000	0.888632000	-0.897432000
C	2.181235481	-0.666290535	-0.015204779
H	3.013675481	-1.229412535	-0.413123779
H	1.343151481	-1.216204535	0.388093221
C	2.181231481	0.666342465	-0.013597779
H	3.013664481	1.230431465	-0.410157779
H	1.343145481	1.215274465	0.391032221
