10

O	1.464296000	-0.681462000	-0.000164000
H	2.228013000	-1.262252000	0.000638000
C	1.936827000	0.659408000	0.000028000
H	1.059931000	1.299740000	-0.000792000
H	2.526891000	0.885607000	0.888676000
H	2.528359000	0.885337000	-0.887713000
C	-2.609318100	0.197924000	-0.000047500
H	-3.596024100	0.588835000	-0.000124500
C	-1.482959100	-0.251738000	0.000035500
H	-0.489540100	-0.641421000	0.000110500
