10

O	1.464296000	-0.681462000	-0.000164000
H	2.228013000	-1.262252000	0.000638000
C	1.936827000	0.659408000	0.000028000
H	1.059931000	1.299740000	-0.000792000
H	2.526891000	0.885607000	0.888676000
H	2.528359000	0.885337000	-0.887713000
C	-2.717864550	0.200148500	-0.000032250
H	-3.704570550	0.591059500	-0.000109250
C	-1.591505550	-0.249513500	0.000050750
H	-0.598086550	-0.639196500	0.000125750
