11

O	1.163448000	-0.453265000	-0.041135000
H	0.515493000	0.257475000	-0.042429000
C	2.450665000	0.133314000	0.025163000
H	3.172241000	-0.678386000	0.027681000
H	2.660641000	0.771732000	-0.835135000
H	2.593952000	0.718100000	0.935825000
F	-1.088370200	0.666503800	-0.017847400
C	-1.718373200	-0.572878200	0.013265600
H	-2.361174200	-0.612722200	0.887500600
H	-2.309762200	-0.683794200	-0.890612400
H	-0.960001200	-1.348062200	0.065692600
