11

O	1.163448000	-0.453265000	-0.041135000
H	0.515493000	0.257475000	-0.042429000
C	2.450665000	0.133314000	0.025163000
H	3.172241000	-0.678386000	0.027681000
H	2.660641000	0.771732000	-0.835135000
H	2.593952000	0.718100000	0.935825000
F	-1.389094550	0.743196700	-0.013238350
C	-2.019097550	-0.496185300	0.017874650
H	-2.661898550	-0.536029300	0.892109650
H	-2.610486550	-0.607101300	-0.886003350
H	-1.260725550	-1.271369300	0.070301650
