11

O	1.163448000	-0.453265000	-0.041135000
H	0.515493000	0.257475000	-0.042429000
C	2.450665000	0.133314000	0.025163000
H	3.172241000	-0.678386000	0.027681000
H	2.660641000	0.771732000	-0.835135000
H	2.593952000	0.718100000	0.935825000
F	-1.288853100	0.717632400	-0.014774700
C	-1.918856100	-0.521749600	0.016338300
H	-2.561657100	-0.561593600	0.890573300
H	-2.510245100	-0.632665600	-0.887539700
H	-1.160484100	-1.296933600	0.068765300
