11

O	1.163448000	-0.453265000	-0.041135000
H	0.515493000	0.257475000	-0.042429000
C	2.450665000	0.133314000	0.025163000
H	3.172241000	-0.678386000	0.027681000
H	2.660641000	0.771732000	-0.835135000
H	2.593952000	0.718100000	0.935825000
F	-1.589577450	0.794325300	-0.010165650
C	-2.219580450	-0.445056700	0.020947350
H	-2.862381450	-0.484900700	0.895182350
H	-2.810969450	-0.555972700	-0.882930650
H	-1.461208450	-1.220240700	0.073374350
