11

O	-1.599354000	0.395158000	-0.001606000
H	-0.965599000	-0.328862000	-0.001631000
C	-2.899519000	-0.169670000	0.000921000
H	-3.604889000	0.655933000	0.000958000
H	-3.087482000	-0.778622000	-0.885049000
H	-3.084945000	-0.776542000	0.888852000
Cl	1.327815800	-0.799135300	-0.000457500
C	1.398683800	0.984957700	0.000097500
H	1.930694800	1.299896700	0.889480500
H	1.927340800	1.300590700	-0.891037500
H	0.383527800	1.363236700	0.002133500
