11

O	-1.599354000	0.395158000	-0.001606000
H	-0.965599000	-0.328862000	-0.001631000
C	-2.899519000	-0.169670000	0.000921000
H	-3.604889000	0.655933000	0.000958000
H	-3.087482000	-0.778622000	-0.885049000
H	-3.084945000	-0.776542000	0.888852000
Cl	1.548136000	-0.691571000	-0.000042000
C	1.619004000	1.092522000	0.000513000
H	2.151015000	1.407461000	0.889896000
H	2.147661000	1.408155000	-0.890622000
H	0.603848000	1.470801000	0.002549000
