11

O	-1.599354000	0.395158000	-0.001606000
H	-0.965599000	-0.328862000	-0.001631000
C	-2.899519000	-0.169670000	0.000921000
H	-3.604889000	0.655933000	0.000958000
H	-3.087482000	-0.778622000	-0.885049000
H	-3.084945000	-0.776542000	0.888852000
Cl	1.437975900	-0.745353150	-0.000249750
C	1.508843900	1.038739850	0.000305250
H	2.040854900	1.353678850	0.889688250
H	2.037500900	1.354372850	-0.890829750
H	0.493687900	1.417018850	0.002341250
