20

C	-1.935678000	-0.122474000	-0.142580000
O	-1.125172000	-0.228622000	-1.043034000
O	-1.609600000	-0.077814000	1.153126000
H	-0.628803000	-0.170139000	1.223130000
C	-3.421312000	-0.025143000	-0.340870000
H	-3.649845000	-0.020673000	-1.399995000
H	-3.906524000	-0.870284000	0.142332000
H	-3.796913000	0.879532000	0.131250000
C	1.650527500	-1.585274900	-0.472810500
H	2.393415500	-1.407536900	-1.246502500
H	0.786889500	-2.079277900	-0.915484500
H	2.063003500	-2.237899900	0.290510500
C	1.164676500	-0.320065900	0.178037500
O	0.574010500	-0.334706900	1.261794500
N	1.408348500	0.822331100	-0.494852500
H	1.752380500	0.741724100	-1.434935500
C	0.829807500	2.080385100	-0.071488500
H	-0.201172500	2.176105100	-0.410220500
H	0.846641500	2.117506100	1.013039500
H	1.420785500	2.900365100	-0.468793500
