20

C	2.349477000	0.079062000	-0.034302000
O	1.615853000	0.476573000	-0.915487000
O	3.682169000	-0.031906000	-0.204860000
H	3.856867000	0.255397000	-1.113796000
C	1.929353000	-0.350619000	1.335909000
H	0.869267000	-0.168668000	1.469775000
H	2.143218000	-1.410430000	1.458311000
H	2.506560000	0.188714000	2.082633000
C	-1.429588750	-1.760748900	-0.452040950
H	-0.436500750	-1.570689900	-0.852160950
H	-2.023474750	-2.287036900	-1.195038950
H	-1.353258750	-2.405464900	0.421189050
C	-2.162623750	-0.497905900	-0.058544950
O	-3.320637750	-0.514966900	0.344489050
N	-1.442652750	0.646185100	-0.163248950
H	-0.514570750	0.617653100	-0.556532950
C	-2.052814750	1.920211100	0.146286050
H	-2.586938750	1.851001100	1.090410050
H	-1.274818750	2.674529100	0.223426050
H	-2.767614750	2.222832100	-0.618725950
