18

C	-2.228781000	0.068858000	-0.057727000
O	-1.477889000	1.004796000	-0.271109000
O	-1.820404000	-1.143962000	0.308649000
H	-0.826322000	-1.125387000	0.380397000
C	-3.724300000	0.144106000	-0.177560000
H	-4.018615000	1.141007000	-0.483470000
H	-4.068617000	-0.589023000	-0.903303000
H	-4.178774000	-0.105418000	0.778493000
C	1.091248857	1.467775934	0.595239173
O	0.340381857	-1.072045066	0.519839173
S	0.984741857	-0.035550066	-0.379442827
C	2.735282857	-0.441233066	-0.330335827
H	1.699909857	2.199051934	0.066825173
H	0.072027857	1.826014934	0.702108173
H	1.521752857	1.214448934	1.562009173
H	3.304626857	0.327347934	-0.849003827
H	3.038210857	-0.527263066	0.710924173
H	2.852582857	-1.397329066	-0.832676827
