18

C	-2.228781000	0.068858000	-0.057727000
O	-1.477889000	1.004796000	-0.271109000
O	-1.820404000	-1.143962000	0.308649000
H	-0.826322000	-1.125387000	0.380397000
C	-3.724300000	0.144106000	-0.177560000
H	-4.018615000	1.141007000	-0.483470000
H	-4.068617000	-0.589023000	-0.903303000
H	-4.178774000	-0.105418000	0.778493000
C	1.766194361	1.463269963	0.604824147
O	1.015327361	-1.076551037	0.529424147
S	1.659687361	-0.040056037	-0.369857853
C	3.410228361	-0.445739037	-0.320750853
H	2.374855361	2.194545963	0.076410147
H	0.746973361	1.821508963	0.711693147
H	2.196698361	1.209942963	1.571594147
H	3.979572361	0.322841963	-0.839418853
H	3.713156361	-0.531769037	0.720509147
H	3.527528361	-1.401835037	-0.823091853
