13

C	-1.958785000	-0.159108000	0.000046000
O	-2.056837000	-1.363316000	0.021122000
O	-0.766274000	0.481456000	-0.029500000
H	-0.083037000	-0.211490000	-0.028741000
C	-3.097342000	0.816518000	0.002372000
H	-4.036309000	0.276937000	0.026144000
H	-3.017250000	1.469460000	0.868305000
H	-3.045197000	1.440868000	-0.886475000
Cl	1.832955000	-0.555302000	-0.012114600
C	2.145406000	1.200732000	0.017159400
H	2.718268000	1.427951000	0.907842400
H	2.705706000	1.460087000	-0.872735600
H	1.192854000	1.717121000	0.033098400
