13

C	-1.958785000	-0.159108000	0.000046000
O	-2.056837000	-1.363316000	0.021122000
O	-0.766274000	0.481456000	-0.029500000
H	-0.083037000	-0.211490000	-0.028741000
C	-3.097342000	0.816518000	0.002372000
H	-4.036309000	0.276937000	0.026144000
H	-3.017250000	1.469460000	0.868305000
H	-3.045197000	1.440868000	-0.886475000
Cl	2.311953000	-0.641255000	-0.007958000
C	2.624404000	1.114779000	0.021316000
H	3.197266000	1.341998000	0.911999000
H	3.184704000	1.374134000	-0.868579000
H	1.671852000	1.631168000	0.037255000
