13

C	-1.958785000	-0.159108000	0.000046000
O	-2.056837000	-1.363316000	0.021122000
O	-0.766274000	0.481456000	-0.029500000
H	-0.083037000	-0.211490000	-0.028741000
C	-3.097342000	0.816518000	0.002372000
H	-4.036309000	0.276937000	0.026144000
H	-3.017250000	1.469460000	0.868305000
H	-3.045197000	1.440868000	-0.886475000
Cl	2.551452000	-0.684231500	-0.005879700
C	2.863903000	1.071802500	0.023394300
H	3.436765000	1.299021500	0.914077300
H	3.424203000	1.331157500	-0.866500700
H	1.911351000	1.588191500	0.039333300
