13

Br	2.186369000	-0.400735000	0.013037000
C	2.005698000	1.524644000	-0.071427000
H	2.337993000	1.838597000	-1.052712000
H	0.961017000	1.761428000	0.094674000
H	2.639312000	1.937475000	0.703218000
P	-2.063681200	0.076005800	0.042949500
O	-2.301191200	-0.882948200	1.310621500
O	-1.255502200	-0.875043200	-0.939845500
O	-1.495945200	1.390967800	0.379766500
O	-3.469274200	0.175731800	-0.698183500
H	-0.314535200	-0.916571200	-0.697113500
H	-3.813054200	-0.688623200	-0.948687500
H	-2.405332200	-0.348113200	2.105645500
