13

Br	2.186369000	-0.400735000	0.013037000
C	2.005698000	1.524644000	-0.071427000
H	2.337993000	1.838597000	-1.052712000
H	0.961017000	1.761428000	0.094674000
H	2.639312000	1.937475000	0.703218000
P	-1.728640900	0.126523100	0.004073250
O	-1.966150900	-0.832430900	1.271745250
O	-0.920461900	-0.824525900	-0.978721750
O	-1.160904900	1.441485100	0.340890250
O	-3.134233900	0.226249100	-0.737059750
H	0.020505100	-0.866053900	-0.735989750
H	-3.478013900	-0.638105900	-0.987563750
H	-2.070291900	-0.297595900	2.066769250
