13

Cl	2.566756000	-0.662468000	0.032407000
C	2.626935000	1.125144000	-0.075571000
H	2.967464000	1.384824000	-1.070305000
H	1.629060000	1.504863000	0.112724000
H	3.330076000	1.470870000	0.672001000
P	-1.182234050	0.137898850	0.051525550
O	-1.521811050	-0.790528150	1.318928550
O	-0.403238050	-0.872165150	-0.894161450
O	-0.543526050	1.418072850	0.395290550
O	-2.554527050	0.317805850	-0.736034450
H	0.528968950	-0.958238150	-0.629411450
H	-2.943973050	-0.526096150	-0.989376450
H	-1.627122050	-0.240751150	2.103442550
