13

Cl	2.566756000	-0.662468000	0.032407000
C	2.626935000	1.125144000	-0.075571000
H	2.967464000	1.384824000	-1.070305000
H	1.629060000	1.504863000	0.112724000
H	3.330076000	1.470870000	0.672001000
P	-0.860478200	0.184599400	0.156023200
O	-1.200055200	-0.743827600	1.423426200
O	-0.081482200	-0.825464600	-0.789663800
O	-0.221770200	1.464773400	0.499788200
O	-2.232771200	0.364506400	-0.631536800
H	0.850724800	-0.911537600	-0.524913800
H	-2.622217200	-0.479395600	-0.884878800
H	-1.305366200	-0.194050600	2.207940200
