13

Cl	2.566756000	-0.662468000	0.032407000
C	2.626935000	1.125144000	-0.075571000
H	2.967464000	1.384824000	-1.070305000
H	1.629060000	1.504863000	0.112724000
H	3.330076000	1.470870000	0.672001000
P	-0.645974300	0.215733100	0.225688300
O	-0.985551300	-0.712693900	1.493091300
O	0.133021700	-0.794330900	-0.719998700
O	-0.007266300	1.495907100	0.569453300
O	-2.018267300	0.395640100	-0.561871700
H	1.065228700	-0.880403900	-0.455248700
H	-2.407713300	-0.448261900	-0.815213700
H	-1.090862300	-0.162916900	2.277605300
