13

F	2.511301000	-0.739920000	0.144570000
C	2.988430000	0.551584000	-0.122370000
H	3.515275000	0.525595000	-1.070636000
H	2.140522000	1.227070000	-0.165566000
H	3.666147000	0.827117000	0.678705000
P	-0.213833900	0.066774000	-0.054483300
O	-0.667552900	-0.405940000	1.414451700
O	0.576875100	-1.205722000	-0.573908300
O	0.458095100	1.375148000	-0.088621300
O	-1.533549900	0.019333000	-0.946590300
H	1.510418100	-1.181124000	-0.301158300
H	-1.941327900	-0.853380000	-0.947280300
H	-0.834749900	0.367239000	1.964806700
