13

F	2.511301000	-0.739920000	0.144570000
C	2.988430000	0.551584000	-0.122370000
H	3.515275000	0.525595000	-1.070636000
H	2.140522000	1.227070000	-0.165566000
H	3.666147000	0.827117000	0.678705000
P	-1.175220700	0.151390000	-0.010514900
O	-1.628939700	-0.321324000	1.458420100
O	-0.384511700	-1.121106000	-0.529939900
O	-0.503291700	1.459764000	-0.044652900
O	-2.494936700	0.103949000	-0.902621900
H	0.549031300	-1.096508000	-0.257189900
H	-2.902714700	-0.768764000	-0.903311900
H	-1.796136700	0.451855000	2.008775100
