13

F	2.511301000	-0.739920000	0.144570000
C	2.988430000	0.551584000	-0.122370000
H	3.515275000	0.525595000	-1.070636000
H	2.140522000	1.227070000	-0.165566000
H	3.666147000	0.827117000	0.678705000
P	-1.055047350	0.140813000	-0.016010950
O	-1.508766350	-0.331901000	1.452924050
O	-0.264338350	-1.131683000	-0.535435950
O	-0.383118350	1.449187000	-0.050148950
O	-2.374763350	0.093372000	-0.908117950
H	0.669204650	-1.107085000	-0.262685950
H	-2.782541350	-0.779341000	-0.908807950
H	-1.675963350	0.441278000	2.003279050
