17

C	-0.637636000	-1.806095000	-0.280093000
H	0.370778000	-1.683005000	-0.667500000
H	-1.234340000	-2.360160000	-1.000505000
H	-0.606283000	-2.391023000	0.636358000
C	-1.331510000	-0.494692000	0.009352000
O	-2.479457000	-0.443796000	0.434443000
N	-0.587569000	0.618809000	-0.216733000
H	0.320822000	0.525624000	-0.636114000
C	-1.158588000	1.934325000	-0.028323000
H	-1.748028000	1.939036000	0.884076000
H	-0.356888000	2.662896000	0.052930000
H	-1.814003000	2.216012000	-0.852386000
F	1.801965300	0.294516900	-0.626252400
C	2.203943300	-0.014074100	0.667117600
H	2.963112300	0.698264900	0.975702600
H	1.341710300	0.047303900	1.325499600
H	2.610855300	-1.020855100	0.675399600
