17

C	-0.637636000	-1.806095000	-0.280093000
H	0.370778000	-1.683005000	-0.667500000
H	-1.234340000	-2.360160000	-1.000505000
H	-0.606283000	-2.391023000	0.636358000
C	-1.331510000	-0.494692000	0.009352000
O	-2.479457000	-0.443796000	0.434443000
N	-0.587569000	0.618809000	-0.216733000
H	0.320822000	0.525624000	-0.636114000
C	-1.158588000	1.934325000	-0.028323000
H	-1.748028000	1.939036000	0.884076000
H	-0.356888000	2.662896000	0.052930000
H	-1.814003000	2.216012000	-0.852386000
F	2.436741000	0.195471000	-0.622026000
C	2.838719000	-0.113120000	0.671344000
H	3.597888000	0.599219000	0.979929000
H	1.976486000	-0.051742000	1.329726000
H	3.245631000	-1.119901000	0.679626000
