17

C	-2.704373000	-0.313377000	-0.141211000
O	-0.337048000	-0.963277000	0.843617000
S	-0.914255000	-0.226396000	-0.333408000
C	-0.763809000	1.528429000	0.040031000
H	-3.189218000	0.316369000	-0.884619000
H	-2.989545000	-1.351894000	-0.285507000
H	-2.950416000	0.003213000	0.870518000
H	-1.258698000	2.112189000	-0.733995000
H	-1.207285000	1.707719000	1.018003000
H	0.303911000	1.737131000	0.063147000
N	2.020234400	0.253547600	0.466641600
H	1.319410400	-0.312903400	0.934382600
H	2.739550400	0.442482600	1.152420600
C	2.593546400	-0.526277400	-0.630799400
H	3.334931400	0.072864600	-1.156217400
H	3.066760400	-1.465769400	-0.331875400
H	1.807164400	-0.767009400	-1.343735400
