17

C	-2.704373000	-0.313377000	-0.141211000
O	-0.337048000	-0.963277000	0.843617000
S	-0.914255000	-0.226396000	-0.333408000
C	-0.763809000	1.528429000	0.040031000
H	-3.189218000	0.316369000	-0.884619000
H	-2.989545000	-1.351894000	-0.285507000
H	-2.950416000	0.003213000	0.870518000
H	-1.258698000	2.112189000	-0.733995000
H	-1.207285000	1.707719000	1.018003000
H	0.303911000	1.737131000	0.063147000
N	2.537877650	0.456789350	0.495005850
H	1.837053650	-0.109661650	0.962746850
H	3.257193650	0.645724350	1.180784850
C	3.111189650	-0.323035650	-0.602435150
H	3.852574650	0.276106350	-1.127853150
H	3.584403650	-1.262527650	-0.303511150
H	2.324807650	-0.563767650	-1.315371150
