17

C	-2.704373000	-0.313377000	-0.141211000
O	-0.337048000	-0.963277000	0.843617000
S	-0.914255000	-0.226396000	-0.333408000
C	-0.763809000	1.528429000	0.040031000
H	-3.189218000	0.316369000	-0.884619000
H	-2.989545000	-1.351894000	-0.285507000
H	-2.950416000	0.003213000	0.870518000
H	-1.258698000	2.112189000	-0.733995000
H	-1.207285000	1.707719000	1.018003000
H	0.303911000	1.737131000	0.063147000
N	2.330820350	0.375492650	0.483660150
H	1.629996350	-0.190958350	0.951401150
H	3.050136350	0.564427650	1.169439150
C	2.904132350	-0.404332350	-0.613780850
H	3.645517350	0.194809650	-1.139198850
H	3.377346350	-1.343824350	-0.314856850
H	2.117750350	-0.645064350	-1.326716850
