17

C	-2.704373000	-0.313377000	-0.141211000
O	-0.337048000	-0.963277000	0.843617000
S	-0.914255000	-0.226396000	-0.333408000
C	-0.763809000	1.528429000	0.040031000
H	-3.189218000	0.316369000	-0.884619000
H	-2.989545000	-1.351894000	-0.285507000
H	-2.950416000	0.003213000	0.870518000
H	-1.258698000	2.112189000	-0.733995000
H	-1.207285000	1.707719000	1.018003000
H	0.303911000	1.737131000	0.063147000
N	2.434349000	0.416141000	0.489333000
H	1.733525000	-0.150310000	0.957074000
H	3.153665000	0.605076000	1.175112000
C	3.007661000	-0.363684000	-0.608108000
H	3.749046000	0.235458000	-1.133526000
H	3.480875000	-1.303176000	-0.309184000
H	2.221279000	-0.604416000	-1.321044000
