17

C	-2.704373000	-0.313377000	-0.141211000
O	-0.337048000	-0.963277000	0.843617000
S	-0.914255000	-0.226396000	-0.333408000
C	-0.763809000	1.528429000	0.040031000
H	-3.189218000	0.316369000	-0.884619000
H	-2.989545000	-1.351894000	-0.285507000
H	-2.950416000	0.003213000	0.870518000
H	-1.258698000	2.112189000	-0.733995000
H	-1.207285000	1.707719000	1.018003000
H	0.303911000	1.737131000	0.063147000
N	2.227291700	0.334844300	0.477987300
H	1.526467700	-0.231606700	0.945728300
H	2.946607700	0.523779300	1.163766300
C	2.800603700	-0.444980700	-0.619453700
H	3.541988700	0.154161300	-1.144871700
H	3.273817700	-1.384472700	-0.320529700
H	2.014221700	-0.685712700	-1.332389700
