17

C	-2.704373000	-0.313377000	-0.141211000
O	-0.337048000	-0.963277000	0.843617000
S	-0.914255000	-0.226396000	-0.333408000
C	-0.763809000	1.528429000	0.040031000
H	-3.189218000	0.316369000	-0.884619000
H	-2.989545000	-1.351894000	-0.285507000
H	-2.950416000	0.003213000	0.870518000
H	-1.258698000	2.112189000	-0.733995000
H	-1.207285000	1.707719000	1.018003000
H	0.303911000	1.737131000	0.063147000
N	2.641406300	0.497437700	0.500678700
H	1.940582300	-0.069013300	0.968419700
H	3.360722300	0.686372700	1.186457700
C	3.214718300	-0.282387300	-0.596762300
H	3.956103300	0.316754700	-1.122180300
H	3.687932300	-1.221879300	-0.297838300
H	2.428336300	-0.523119300	-1.309698300
