13

C	2.400105000	0.708413000	0.000509000
S	1.203980000	-0.657421000	-0.000365000
H	0.098117000	0.108145000	-0.000642000
H	2.295487000	1.321817000	0.890104000
H	3.389321000	0.259355000	0.000876000
H	2.296329000	1.322219000	-0.888907000
N	-1.985438000	0.865353000	-0.000523000
H	-2.326618000	1.370457000	-0.808031000
H	-2.325986000	1.371561000	0.806563000
C	-2.537122000	-0.491822000	0.000625000
H	-2.170488000	-1.022761000	0.876409000
H	-3.628280000	-0.545201000	0.001188000
H	-2.171388000	-1.023878000	-0.874858000
