24

C	0.225115000	2.687896000	-0.246381000
H	0.932124000	2.336857000	-0.998605000
H	-0.572922000	3.215741000	-0.768757000
H	0.742876000	3.406916000	0.386823000
C	-0.333175000	1.523380000	0.561235000
H	-1.033189000	1.900192000	1.310675000
H	0.469647000	1.024091000	1.107293000
C	-1.042957000	0.495528000	-0.309224000
H	-1.829006000	0.987859000	-0.890267000
H	-0.333031000	0.091950000	-1.038551000
C	-1.645417000	-0.650060000	0.492743000
H	-2.386647000	-0.247447000	1.186880000
H	-0.859811000	-1.103501000	1.099266000
C	-2.294267000	-1.704676000	-0.394234000
H	-1.563675000	-2.140179000	-1.077103000
H	-2.726453000	-2.514959000	0.191104000
H	-3.088700000	-1.269265000	-1.000651000
N	1.315482848	-1.280042383	0.368620332
H	0.653719848	-1.644075383	-0.305207668
H	1.842490848	-2.081225383	0.691642332
C	2.218651848	-0.339499383	-0.295404668
H	2.935938848	0.037836617	0.430227332
H	2.777466848	-0.748308383	-1.142045668
H	1.644784848	0.513164617	-0.652133668
