12

N	1.400915000	-0.714554000	-0.259578000
H	2.143683000	-1.398700000	-0.203773000
H	0.716957000	-0.986414000	0.435188000
C	1.928975000	0.605772000	0.084233000
H	1.119758000	1.332167000	0.050070000
H	2.396958000	0.676252000	1.070032000
H	2.664473000	0.904053000	-0.659888000
F	-1.746406100	-0.015188800	0.783419400
C	-2.055056100	0.261708200	-0.540453600
H	-1.191263100	0.025018200	-1.154906600
H	-2.907101100	-0.344815800	-0.835491600
H	-2.306686100	1.315416200	-0.627805600
