12

N	1.400915000	-0.714554000	-0.259578000
H	2.143683000	-1.398700000	-0.203773000
H	0.716957000	-0.986414000	0.435188000
C	1.928975000	0.605772000	0.084233000
H	1.119758000	1.332167000	0.050070000
H	2.396958000	0.676252000	1.070032000
H	2.664473000	0.904053000	-0.659888000
F	-1.298521900	-0.191775200	0.720104600
C	-1.607171900	0.085121800	-0.603768400
H	-0.743378900	-0.151568200	-1.218221400
H	-2.459216900	-0.521402200	-0.898806400
H	-1.858801900	1.138829800	-0.691120400
