16

C	-3.045897000	-0.440581000	-0.043393000
O	-0.663502000	-0.614860000	1.093788000
S	-1.261853000	-0.284730000	-0.245090000
C	-1.243692000	1.511737000	-0.381644000
H	-3.553938000	-0.091999000	-0.940401000
H	-3.253883000	-1.494456000	0.120045000
H	-3.339202000	0.136518000	0.831374000
H	-1.792527000	1.820706000	-1.269314000
H	-1.685001000	1.924469000	0.523810000
H	-0.199982000	1.805547000	-0.460669000
C	2.701987150	-0.929772450	-0.722199300
S	2.614106150	0.561839550	0.309919700
H	1.545806150	0.165847550	1.017152700
H	1.781442150	-1.076829450	-1.279178300
H	3.518290150	-0.779512450	-1.423242300
H	2.911914150	-1.806887450	-0.118615300
