14

C	0.379876000	1.418472000	-0.188750000
O	0.256200000	-1.230686000	-0.148932000
S	1.221317000	-0.140812000	-0.520391000
C	2.381710000	-0.016325000	0.852857000
H	1.074190000	2.245740000	-0.322601000
H	-0.438667000	1.496804000	-0.899378000
H	-0.015823000	1.389496000	0.824633000
H	3.035353000	0.842190000	0.711501000
H	1.809283000	0.065271000	1.774768000
H	2.963979000	-0.933717000	0.856772000
C	-2.688852600	-0.403251400	0.131922900
H	-1.736774600	-0.885524400	0.056117900
C	-3.758513600	0.163465600	0.216360900
H	-4.699022600	0.649721600	0.290463900
