14

C	0.379876000	1.418472000	-0.188750000
O	0.256200000	-1.230686000	-0.148932000
S	1.221317000	-0.140812000	-0.520391000
C	2.381710000	-0.016325000	0.852857000
H	1.074190000	2.245740000	-0.322601000
H	-0.438667000	1.496804000	-0.899378000
H	-0.015823000	1.389496000	0.824633000
H	3.035353000	0.842190000	0.711501000
H	1.809283000	0.065271000	1.774768000
H	2.963979000	-0.933717000	0.856772000
C	-2.164385600	-0.494083400	0.077962400
H	-1.212307600	-0.976356400	0.002157400
C	-3.234046600	0.072633600	0.162400400
H	-4.174555600	0.558889600	0.236503400
