15

C	0.650289000	1.418170000	0.419768000
O	0.378129000	-1.218036000	0.465094000
S	0.983331000	-0.150670000	-0.400461000
C	2.752378000	-0.168770000	-0.048910000
H	1.182497000	2.220756000	-0.087383000
H	-0.422535000	1.577480000	0.357132000
H	0.961544000	1.329184000	1.459004000
H	3.240569000	0.667591000	-0.545373000
H	2.884071000	-0.123493000	1.030478000
H	3.140462000	-1.109158000	-0.430733000
F	-2.119519000	0.684394400	-0.266617000
C	-2.459786000	-0.604151600	0.130182000
H	-3.115575000	-0.538894600	0.994350000
H	-2.980075000	-1.092387600	-0.689475000
H	-1.550787000	-1.143321600	0.379066000
