15

C	0.650289000	1.418170000	0.419768000
O	0.378129000	-1.218036000	0.465094000
S	0.983331000	-0.150670000	-0.400461000
C	2.752378000	-0.168770000	-0.048910000
H	1.182497000	2.220756000	-0.087383000
H	-0.422535000	1.577480000	0.357132000
H	0.961544000	1.329184000	1.459004000
H	3.240569000	0.667591000	-0.545373000
H	2.884071000	-0.123493000	1.030478000
H	3.140462000	-1.109158000	-0.430733000
F	-2.847445592	0.712589821	-0.299081902
C	-3.187712592	-0.575956179	0.097717098
H	-3.843501592	-0.510699179	0.961885098
H	-3.708001592	-1.064192179	-0.721939902
H	-2.278713592	-1.115126179	0.346601098
