16

C	1.685742000	-1.323400000	0.401585000
O	3.995373000	-0.000092000	0.058460000
S	2.549332000	-0.000013000	-0.430121000
C	1.685881000	1.323471000	0.401584000
H	2.110184000	-2.255920000	0.029856000
H	1.901538000	-1.221538000	1.466826000
H	0.586911000	-1.256222000	0.184539000
H	0.587005000	1.256349000	0.184698000
H	1.901813000	1.221662000	1.466802000
H	2.110319000	2.255953000	0.029752000
P	-1.863670500	0.002213500	-0.129888700
O	-3.073348500	0.002527500	-1.070713700
O	-2.667557500	0.001614500	1.405076300
O	-1.012630500	1.280123500	-0.119905700
O	-1.012555500	-1.275648500	-0.120851700
H	-3.565518500	0.001706500	1.061009300
