16

C	1.685742000	-1.323400000	0.401585000
O	3.995373000	-0.000092000	0.058460000
S	2.549332000	-0.000013000	-0.430121000
C	1.685881000	1.323471000	0.401584000
H	2.110184000	-2.255920000	0.029856000
H	1.901538000	-1.221538000	1.466826000
H	0.586911000	-1.256222000	0.184539000
H	0.587005000	1.256349000	0.184698000
H	1.901813000	1.221662000	1.466802000
H	2.110319000	2.255953000	0.029752000
P	-1.508233500	0.006530500	-0.062024100
O	-2.717911500	0.006844500	-1.002849100
O	-2.312120500	0.005931500	1.472940900
O	-0.657193500	1.284440500	-0.052041100
O	-0.657118500	-1.271331500	-0.052987100
H	-3.210081500	0.006023500	1.128873900
