12

C	-1.258035000	1.222967000	0.000448000
S	-1.542280000	-0.569697000	-0.000363000
H	-2.877153000	-0.515985000	0.000382000
H	-1.669439000	1.685640000	0.891849000
H	-0.179325000	1.351907000	-0.000023000
H	-1.670351000	1.686591000	-0.890037000
C	2.212693636	-0.697037969	0.000862188
H	1.879191636	-1.149754969	0.923567188
H	1.877330636	-1.151087969	-0.920516812
C	3.002057636	0.377071031	-0.000726812
H	3.337275636	0.829668031	0.921587188
H	3.335386636	0.828319031	-0.924384812
