12

C	-1.258035000	1.222967000	0.000448000
S	-1.542280000	-0.569697000	-0.000363000
H	-2.877153000	-0.515985000	0.000382000
H	-1.669439000	1.685640000	0.891849000
H	-0.179325000	1.351907000	-0.000023000
H	-1.670351000	1.686591000	-0.890037000
C	1.608113144	-0.671295570	0.000839735
H	1.274611144	-1.124012570	0.923544735
H	1.272750144	-1.125345570	-0.920539265
C	2.397477144	0.402813430	-0.000749265
H	2.732695144	0.855410430	0.921564735
H	2.730806144	0.854061430	-0.924407265
