12

C	-1.258035000	1.222967000	0.000448000
S	-1.542280000	-0.569697000	-0.000363000
H	-2.877153000	-0.515985000	0.000382000
H	-1.669439000	1.685640000	0.891849000
H	-0.179325000	1.351907000	-0.000023000
H	-1.670351000	1.686591000	-0.890037000
C	1.242038456	-0.655708496	0.000826139
H	0.908536456	-1.108425496	0.923531139
H	0.906675456	-1.109758496	-0.920552861
C	2.031402456	0.418400504	-0.000762861
H	2.366620456	0.870997504	0.921551139
H	2.364731456	0.869648504	-0.924420861
