12

C	-1.258035000	1.222967000	0.000448000
S	-1.542280000	-0.569697000	-0.000363000
H	-2.877153000	-0.515985000	0.000382000
H	-1.669439000	1.685640000	0.891849000
H	-0.179325000	1.351907000	-0.000023000
H	-1.670351000	1.686591000	-0.890037000
C	2.400624031	-0.705039847	0.000869168
H	2.067122031	-1.157756847	0.923574168
H	2.065261031	-1.159089847	-0.920509832
C	3.189988031	0.369069153	-0.000719832
H	3.525206031	0.821666153	0.921594168
H	3.523317031	0.820317153	-0.924377832
