11

C	1.424089000	1.132401000	0.177225000
S	1.514562000	-0.669192000	-0.024726000
H	0.568751000	-0.753957000	-0.964320000
H	0.422706000	1.443666000	0.456018000
H	2.113246000	1.387015000	0.977457000
H	1.732875000	1.643769000	-0.728702000
F	-1.874435000	0.303112000	-0.680239000
C	-2.271016000	-0.235923000	0.532270000
H	-2.754190000	0.539091000	1.121383000
H	-2.970418000	-1.046504000	0.346313000
H	-1.394487000	-0.612895000	1.052651000
