11

C	1.424089000	1.132401000	0.177225000
S	1.514562000	-0.669192000	-0.024726000
H	0.568751000	-0.753957000	-0.964320000
H	0.422706000	1.443666000	0.456018000
H	2.113246000	1.387015000	0.977457000
H	1.732875000	1.643769000	-0.728702000
F	-1.385797800	0.091698200	-0.737055200
C	-1.782378800	-0.447336800	0.475453800
H	-2.265552800	0.327677200	1.064566800
H	-2.481780800	-1.257917800	0.289496800
H	-0.905849800	-0.824308800	0.995834800
