11

C	1.424089000	1.132401000	0.177225000
S	1.514562000	-0.669192000	-0.024726000
H	0.568751000	-0.753957000	-0.964320000
H	0.422706000	1.443666000	0.456018000
H	2.113246000	1.387015000	0.977457000
H	1.732875000	1.643769000	-0.728702000
F	-1.141479200	-0.014008700	-0.765463300
C	-1.538060200	-0.553043700	0.447045700
H	-2.021234200	0.221970300	1.036158700
H	-2.237462200	-1.363624700	0.261088700
H	-0.661531200	-0.930015700	0.967426700
