11

C	1.424089000	1.132401000	0.177225000
S	1.514562000	-0.669192000	-0.024726000
H	0.568751000	-0.753957000	-0.964320000
H	0.422706000	1.443666000	0.456018000
H	2.113246000	1.387015000	0.977457000
H	1.732875000	1.643769000	-0.728702000
F	-2.118753600	0.408818900	-0.651830900
C	-2.515334600	-0.130216100	0.560678100
H	-2.998508600	0.644797900	1.149791100
H	-3.214736600	-0.940797100	0.374721100
H	-1.638805600	-0.507188100	1.081059100
