13

P	1.252917000	-0.026157000	-0.017864000
O	0.824842000	1.243841000	0.667067000
O	2.355049000	0.397137000	-1.173621000
O	0.313296000	-1.006856000	-0.639892000
O	2.198643000	-0.849297000	1.059352000
H	2.585172000	1.304841000	-0.956073000
H	2.325690000	-0.223720000	1.778178000
C	-2.523043000	1.184007000	0.043511000
S	-2.822796000	-0.610555000	-0.000251000
H	-1.531972000	-0.928123000	-0.290080000
H	-2.589658000	1.613588000	-0.953170000
H	-3.281697000	1.639518000	0.676373000
H	-1.532933000	1.372490000	0.452426000
