13

P	1.252917000	-0.026157000	-0.017864000
O	0.824842000	1.243841000	0.667067000
O	2.355049000	0.397137000	-1.173621000
O	0.313296000	-1.006856000	-0.639892000
O	2.198643000	-0.849297000	1.059352000
H	2.585172000	1.304841000	-0.956073000
H	2.325690000	-0.223720000	1.778178000
C	-2.615306400	1.187943650	0.061001600
S	-2.915059400	-0.606618350	0.017239600
H	-1.624235400	-0.924186350	-0.272589400
H	-2.681921400	1.617524650	-0.935679400
H	-3.373960400	1.643454650	0.693863600
H	-1.625196400	1.376426650	0.469916600
