13

P	1.252917000	-0.026157000	-0.017864000
O	0.824842000	1.243841000	0.667067000
O	2.355049000	0.397137000	-1.173621000
O	0.313296000	-1.006856000	-0.639892000
O	2.198643000	-0.849297000	1.059352000
H	2.585172000	1.304841000	-0.956073000
H	2.325690000	-0.223720000	1.778178000
C	-2.707569800	1.191880300	0.078492200
S	-3.007322800	-0.602681700	0.034730200
H	-1.716498800	-0.920249700	-0.255098800
H	-2.774184800	1.621461300	-0.918188800
H	-3.466223800	1.647391300	0.711354200
H	-1.717459800	1.380363300	0.487407200
