17

C	-1.807340000	-1.310401000	-0.494846000
O	-4.089558000	-0.063296000	0.071323000
S	-2.626096000	-0.020565000	0.447960000
C	-1.894969000	1.352941000	-0.445668000
H	-0.724806000	-1.263978000	-0.341433000
H	-2.206490000	-2.255270000	-0.132446000
H	-2.079252000	-1.174164000	-1.541131000
H	-0.806358000	1.342975000	-0.327893000
H	-2.193698000	1.255072000	-1.488970000
H	-2.323265000	2.259976000	-0.025026000
P	2.243587000	0.046236600	0.037075600
O	1.601544000	-1.318202400	0.020878600
O	3.136736000	0.126768600	1.424683600
O	1.488649000	1.323786600	-0.100747400
O	3.421598000	0.031382600	-1.120623400
H	3.130638000	-0.774305400	1.759522600
H	3.532275000	-0.899057400	-1.335333400
