17

C	-1.807340000	-1.310401000	-0.494846000
O	-4.089558000	-0.063296000	0.071323000
S	-2.626096000	-0.020565000	0.447960000
C	-1.894969000	1.352941000	-0.445668000
H	-0.724806000	-1.263978000	-0.341433000
H	-2.206490000	-2.255270000	-0.132446000
H	-2.079252000	-1.174164000	-1.541131000
H	-0.806358000	1.342975000	-0.327893000
H	-2.193698000	1.255072000	-1.488970000
H	-2.323265000	2.259976000	-0.025026000
P	1.930631500	0.048853200	0.006101200
O	1.288588500	-1.315585800	-0.010095800
O	2.823780500	0.129385200	1.393709200
O	1.175693500	1.326403200	-0.131721800
O	3.108642500	0.033999200	-1.151597800
H	2.817682500	-0.771688800	1.728548200
H	3.219319500	-0.896440800	-1.366307800
