22

C	2.475270000	-1.419878000	-0.397679000
H	1.767882000	-1.990925000	-0.999616000
H	3.148662000	-0.906665000	-1.083880000
H	3.065593000	-2.125552000	0.184915000
C	1.746860000	-0.420503000	0.491504000
H	2.469674000	0.124271000	1.103037000
H	1.096871000	-0.952781000	1.190329000
C	0.915443000	0.574630000	-0.306871000
H	1.571131000	1.124804000	-0.988248000
H	0.202840000	0.034761000	-0.936287000
C	0.155557000	1.563083000	0.567103000
H	0.866156000	2.113243000	1.188592000
H	-0.491617000	1.010464000	1.252026000
C	-0.682475000	2.536384000	-0.250868000
H	-1.418712000	1.997773000	-0.846110000
H	-1.215141000	3.241620000	0.385289000
H	-0.053600000	3.109671000	-0.932125000
F	-2.272884536	-0.670710373	-0.414994482
C	-1.780789536	-1.715965373	0.341687518
H	-0.833235536	-2.045167373	-0.077785482
H	-1.631059536	-1.376381373	1.363536518
H	-2.495767536	-2.534477373	0.326036518
