10

C	-2.973447000	0.000714000	0.002461000
H	-4.034859000	0.005525000	0.010351000
C	-1.761365000	-0.004777000	-0.006536000
H	-0.697367000	-0.009508000	-0.014348000
C	1.771803362	0.669577305	0.003932301
H	1.755400362	1.231500305	0.926796301
H	1.783769362	1.231466305	-0.919013699
C	1.781273362	-0.663402695	0.003954301
H	1.772902362	-1.225297695	0.926943301
H	1.801244362	-1.225257695	-0.918874699
