10

C	-2.973447000	0.000714000	0.002461000
H	-4.034859000	0.005525000	0.010351000
C	-1.761365000	-0.004777000	-0.006536000
H	-0.697367000	-0.009508000	-0.014348000
C	1.919239765	0.668916943	0.002845159
H	1.902836765	1.230839943	0.925709159
H	1.931205765	1.230805943	-0.920100841
C	1.928709765	-0.664063057	0.002867159
H	1.920338765	-1.225958057	0.925856159
H	1.948680765	-1.225918057	-0.919961841
