10

C	-2.973447000	0.000714000	0.002461000
H	-4.034859000	0.005525000	0.010351000
C	-1.761365000	-0.004777000	-0.006536000
H	-0.697367000	-0.009508000	-0.014348000
C	1.175378878	0.672248669	0.008330118
H	1.158975878	1.234171669	0.931194118
H	1.187344878	1.234137669	-0.914615882
C	1.184848878	-0.660731331	0.008352118
H	1.176477878	-1.222626331	0.931341118
H	1.204819878	-1.222586331	-0.914476882
