11

F	-1.476641000	-0.001041000	-0.736052000
C	-1.828963000	0.000864000	0.601067000
H	-0.925296000	0.001354000	1.204318000
H	-2.417086000	0.890392000	0.811243000
H	-2.417718000	-0.887683000	0.813608000
C	0.876349850	-0.666299502	-0.022737745
H	1.670984850	-1.228658502	0.446528255
H	0.080620850	-1.221807502	-0.497800745
C	0.876502850	0.666222498	-0.024213745
H	1.671265850	1.229441498	0.443803255
H	0.080903850	1.220860498	-0.500509745
