11

F	-1.476641000	-0.001041000	-0.736052000
C	-1.828963000	0.000864000	0.601067000
H	-0.925296000	0.001354000	1.204318000
H	-2.417086000	0.890392000	0.811243000
H	-2.417718000	-0.887683000	0.813608000
C	2.232506581	-0.666236449	0.026294808
H	3.027141581	-1.228595449	0.495560808
H	1.436777581	-1.221744449	-0.448768192
C	2.232659581	0.666285551	0.024818808
H	3.027422581	1.229504551	0.492835808
H	1.437060581	1.220923551	-0.451477192
