11

F	-1.476641000	-0.001041000	-0.736052000
C	-1.828963000	0.000864000	0.601067000
H	-0.925296000	0.001354000	1.204318000
H	-2.417086000	0.890392000	0.811243000
H	-2.417718000	-0.887683000	0.813608000
C	2.034716402	-0.666245645	0.019143601
H	2.829351402	-1.228604645	0.488409601
H	1.238987402	-1.221753645	-0.455919399
C	2.034869402	0.666276355	0.017667601
H	2.829632402	1.229495355	0.485684601
H	1.239270402	1.220914355	-0.458628399
