13

P	0.973188000	0.054239000	-0.000202000
O	0.317018000	-1.302724000	0.003097000
O	2.023459000	0.060583000	1.283535000
O	0.250873000	1.355849000	-0.004009000
O	2.024672000	0.053737000	-1.282962000
H	2.046604000	-0.860357000	1.558090000
H	2.048140000	-0.868666000	-1.552522000
C	-4.393419500	-0.074065200	0.000438400
H	-4.959921500	-0.996432200	0.001294400
H	-4.959871500	0.848180800	-0.000212600
C	-3.059010500	-0.073353200	0.000196400
H	-2.475070500	-0.983732200	0.000828400
H	-2.472347500	0.835513800	-0.000638600
