13

P	0.973188000	0.054239000	-0.000202000
O	0.317018000	-1.302724000	0.003097000
O	2.023459000	0.060583000	1.283535000
O	0.250873000	1.355849000	-0.004009000
O	2.024672000	0.053737000	-1.282962000
H	2.046604000	-0.860357000	1.558090000
H	2.048140000	-0.868666000	-1.552522000
C	-3.650723000	0.067844400	-0.000480800
H	-4.217225000	-0.854522600	0.000375200
H	-4.217175000	0.990090400	-0.001131800
C	-2.316314000	0.068556400	-0.000722800
H	-1.732374000	-0.841822600	-0.000090800
H	-1.729651000	0.977423400	-0.001557800
