13

P	0.973188000	0.054239000	-0.000202000
O	0.317018000	-1.302724000	0.003097000
O	2.023459000	0.060583000	1.283535000
O	0.250873000	1.355849000	-0.004009000
O	2.024672000	0.053737000	-1.282962000
H	2.046604000	-0.860357000	1.558090000
H	2.048140000	-0.868666000	-1.552522000
C	-3.403157500	0.115147600	-0.000787200
H	-3.969659500	-0.807219400	0.000068800
H	-3.969609500	1.037393600	-0.001438200
C	-2.068748500	0.115859600	-0.001029200
H	-1.484808500	-0.794519400	-0.000397200
H	-1.482085500	1.024726600	-0.001864200
