11

P	-1.015147000	-0.032457000	0.133984000
O	-1.973674000	0.344162000	1.228246000
O	-1.831264000	-1.056382000	-0.878300000
O	0.345540000	-0.610968000	0.338620000
O	-0.834258000	1.308536000	-0.820383000
H	-2.744495000	-0.983837000	-0.587062000
H	-1.519731000	1.905840000	-0.508331000
C	4.631560500	0.093125400	-0.056347500
H	5.679268500	0.233448400	-0.138890500
C	3.429062500	-0.064901600	0.036544500
H	2.354354500	-0.208517600	0.121375500
