11

P	-1.015147000	-0.032457000	0.133984000
O	-1.973674000	0.344162000	1.228246000
O	-1.831264000	-1.056382000	-0.878300000
O	0.345540000	-0.610968000	0.338620000
O	-0.834258000	1.308536000	-0.820383000
H	-2.744495000	-0.983837000	-0.587062000
H	-1.519731000	1.905840000	-0.508331000
C	4.083702000	-0.016633800	0.002901000
H	5.131410000	0.123689200	-0.079642000
C	2.881204000	-0.174660800	0.095793000
H	1.806496000	-0.318276800	0.180624000
