11

P	-1.015147000	-0.032457000	0.133984000
O	-1.973674000	0.344162000	1.228246000
O	-1.831264000	-1.056382000	-0.878300000
O	0.345540000	-0.610968000	0.338620000
O	-0.834258000	1.308536000	-0.820383000
H	-2.744495000	-0.983837000	-0.587062000
H	-1.519731000	1.905840000	-0.508331000
C	4.357631250	0.038245800	-0.026723250
H	5.405339250	0.178568800	-0.109266250
C	3.155133250	-0.119781200	0.066168750
H	2.080425250	-0.263397200	0.150999750
