11

P	-1.015147000	-0.032457000	0.133984000
O	-1.973674000	0.344162000	1.228246000
O	-1.831264000	-1.056382000	-0.878300000
O	0.345540000	-0.610968000	0.338620000
O	-0.834258000	1.308536000	-0.820383000
H	-2.744495000	-0.983837000	-0.587062000
H	-1.519731000	1.905840000	-0.508331000
C	4.448941000	0.056539000	-0.036598000
H	5.496649000	0.196862000	-0.119141000
C	3.246443000	-0.101488000	0.056294000
H	2.171735000	-0.245104000	0.141125000
