11

P	-1.015147000	-0.032457000	0.133984000
O	-1.973674000	0.344162000	1.228246000
O	-1.831264000	-1.056382000	-0.878300000
O	0.345540000	-0.610968000	0.338620000
O	-0.834258000	1.308536000	-0.820383000
H	-2.744495000	-0.983837000	-0.587062000
H	-1.519731000	1.905840000	-0.508331000
C	4.266321500	0.019952600	-0.016848500
H	5.314029500	0.160275600	-0.099391500
C	3.063823500	-0.138074400	0.076043500
H	1.989115500	-0.281690400	0.160874500
