16

O	2.237116000	0.425310000	0.162190000
H	1.537213000	-0.237849000	0.275552000
C	3.452157000	-0.264726000	-0.049048000
H	4.229717000	0.479178000	-0.202937000
H	3.736140000	-0.877494000	0.809371000
H	3.417857000	-0.906403000	-0.932422000
C	-2.799173300	-0.421869250	0.302598950
O	-0.249641300	-1.099085250	0.287100950
S	-1.194078300	-0.209665250	-0.482970050
C	-0.901588300	1.464239750	0.110060950
H	-3.508792300	0.293491750	-0.108312050
H	-3.124559300	-1.436685250	0.091142950
H	-2.671027300	-0.286240250	1.374544950
H	-1.621133300	2.142001750	-0.345094050
H	-0.985032300	1.463350750	1.195140950
H	0.112993700	1.723161750	-0.182371050
