16

O	2.237116000	0.425310000	0.162190000
H	1.537213000	-0.237849000	0.275552000
C	3.452157000	-0.264726000	-0.049048000
H	4.229717000	0.479178000	-0.202937000
H	3.736140000	-0.877494000	0.809371000
H	3.417857000	-0.906403000	-0.932422000
C	-2.373731800	-0.216813000	0.299849200
O	0.175800200	-0.894029000	0.284351200
S	-0.768636800	-0.004609000	-0.485719800
C	-0.476146800	1.669296000	0.107311200
H	-3.083350800	0.498548000	-0.111061800
H	-2.699117800	-1.231629000	0.088393200
H	-2.245585800	-0.081184000	1.371795200
H	-1.195691800	2.347058000	-0.347843800
H	-0.559590800	1.668407000	1.192391200
H	0.538435200	1.928218000	-0.185120800
