16

O	2.237116000	0.425310000	0.162190000
H	1.537213000	-0.237849000	0.275552000
C	3.452157000	-0.264726000	-0.049048000
H	4.229717000	0.479178000	-0.202937000
H	3.736140000	-0.877494000	0.809371000
H	3.417857000	-0.906403000	-0.932422000
C	-2.628996700	-0.339846750	0.301499050
O	-0.079464700	-1.017062750	0.286001050
S	-1.023901700	-0.127642750	-0.484069950
C	-0.731411700	1.546262250	0.108961050
H	-3.338615700	0.375514250	-0.109411950
H	-2.954382700	-1.354662750	0.090043050
H	-2.500850700	-0.204217750	1.373445050
H	-1.450956700	2.224024250	-0.346193950
H	-0.814855700	1.545373250	1.194041050
H	0.283170300	1.805184250	-0.183470950
