16

O	2.237116000	0.425310000	0.162190000
H	1.537213000	-0.237849000	0.275552000
C	3.452157000	-0.264726000	-0.049048000
H	4.229717000	0.479178000	-0.202937000
H	3.736140000	-0.877494000	0.809371000
H	3.417857000	-0.906403000	-0.932422000
C	-2.714085000	-0.380858000	0.302049000
O	-0.164553000	-1.058074000	0.286551000
S	-1.108990000	-0.168654000	-0.483520000
C	-0.816500000	1.505251000	0.109511000
H	-3.423704000	0.334503000	-0.108862000
H	-3.039471000	-1.395674000	0.090593000
H	-2.585939000	-0.245229000	1.373995000
H	-1.536045000	2.183013000	-0.345644000
H	-0.899944000	1.504362000	1.194591000
H	0.198082000	1.764173000	-0.182921000
