14

O	-2.236221000	-0.605204000	-0.053368000
H	-1.680511000	-0.494929000	0.738165000
C	-3.244855000	0.397550000	-0.025055000
H	-3.819789000	0.303797000	-0.941070000
H	-3.916476000	0.259622000	0.821349000
H	-2.819623000	1.400799000	0.021272000
P	0.927332000	0.013694000	0.104033000
O	0.151913000	-0.376399000	-1.224206000
O	2.300297000	-0.798031000	-0.012195000
O	0.134866000	-0.156749000	1.339131000
O	1.458906000	1.502827000	-0.073495000
H	2.154330000	-1.749081000	0.032836000
H	1.977173000	1.612376000	-0.878070000
H	-0.814033000	-0.454841000	-1.011570000
