14

O	-2.236221000	-0.605204000	-0.053368000
H	-1.680511000	-0.494929000	0.738165000
C	-3.244855000	0.397550000	-0.025055000
H	-3.819789000	0.303797000	-0.941070000
H	-3.916476000	0.259622000	0.821349000
H	-2.819623000	1.400799000	0.021272000
P	0.745794300	-0.020124000	0.043936400
O	-0.029624700	-0.410217000	-1.284302600
O	2.118759300	-0.831849000	-0.072291600
O	-0.046671700	-0.190567000	1.279034400
O	1.277368300	1.469009000	-0.133591600
H	1.972792300	-1.782899000	-0.027260600
H	1.795635300	1.578558000	-0.938166600
H	-0.995570700	-0.488659000	-1.071666600
