14

O	-2.236221000	-0.605204000	-0.053368000
H	-1.680511000	-0.494929000	0.738165000
C	-3.244855000	0.397550000	-0.025055000
H	-3.819789000	0.303797000	-0.941070000
H	-3.916476000	0.259622000	0.821349000
H	-2.819623000	1.400799000	0.021272000
P	0.382718900	-0.087760000	-0.076256800
O	-0.392700100	-0.477853000	-1.404495800
O	1.755683900	-0.899485000	-0.192484800
O	-0.409747100	-0.258203000	1.158841200
O	0.914292900	1.401373000	-0.253784800
H	1.609716900	-1.850535000	-0.147453800
H	1.432559900	1.510922000	-1.058359800
H	-1.358646100	-0.556295000	-1.191859800
