 30
#Generated by chemFileConvert.py
  N        0.9794900     0.3945220     0.0037520
  C        1.7090840    -0.7330260     0.0043320
  C        3.1114000    -0.6012720     0.0036700
  C        3.6121430     0.7002820     0.0024630
  N        2.9100650     1.8412100     0.0018610
  C        1.6037190     1.5915690     0.0025770
  N        4.1176120    -1.5390750     0.0039950
  C        5.2183820    -0.8061000     0.0029890
  N        4.9759810     0.5399970     0.0020430
  N        1.0968000    -1.9249870     0.0054940
  H        0.9410910     2.4478230     0.0021810
  H        6.2205540    -1.2009100     0.0028960
  H        5.6563230     1.2816100     0.0011980
  H        0.0828400    -1.9816270     0.0059740
  H        1.6634730    -2.7529150     0.0059330
  N       -3.5033824     1.5694150     0.0047372
  C       -4.2059854     0.3925030     0.0059582
  C       -3.5942274    -0.8127350     0.0066382
  C       -2.1386694    -0.8353160     0.0060342
  N       -1.5175294     0.4001170     0.0047982
  C       -2.1210904     1.6376160     0.0040912
  C       -4.3242974    -2.1142600     0.0079692
  O       -1.4788164    -1.8763930     0.0065712
  O       -1.5141464     2.6937070     0.0030062
  H       -3.9763894     2.4576170     0.0042452
  H       -0.4755724     0.4061780     0.0043512
  H       -5.2824894     0.4906360     0.0063422
  H       -4.0544374    -2.7047240    -0.8662268
  H       -4.0536774    -2.7033610     0.8828502
  H       -5.4008404    -1.9560380     0.0083132
