 30
#Generated by chemFileConvert.py
  N        0.9794900     0.3945220     0.0037520
  C        1.7090840    -0.7330260     0.0043320
  C        3.1114000    -0.6012720     0.0036700
  C        3.6121430     0.7002820     0.0024630
  N        2.9100650     1.8412100     0.0018610
  C        1.6037190     1.5915690     0.0025770
  N        4.1176120    -1.5390750     0.0039950
  C        5.2183820    -0.8061000     0.0029890
  N        4.9759810     0.5399970     0.0020430
  N        1.0968000    -1.9249870     0.0054940
  H        0.9410910     2.4478230     0.0021810
  H        6.2205540    -1.2009100     0.0028960
  H        5.6563230     1.2816100     0.0011980
  H        0.0828400    -1.9816270     0.0059740
  H        1.6634730    -2.7529150     0.0059330
  N       -3.3214996     1.5679580     0.0046623
  C       -4.0241026     0.3910460     0.0058833
  C       -3.4123446    -0.8141920     0.0065633
  C       -1.9567866    -0.8367730     0.0059593
  N       -1.3356466     0.3986600     0.0047233
  C       -1.9392076     1.6361590     0.0040163
  C       -4.1424146    -2.1157170     0.0078943
  O       -1.2969336    -1.8778500     0.0064963
  O       -1.3322636     2.6922500     0.0029313
  H       -3.7945066     2.4561600     0.0041703
  H       -0.2936896     0.4047210     0.0042763
  H       -5.1006066     0.4891790     0.0062673
  H       -3.8725546    -2.7061810    -0.8663017
  H       -3.8717946    -2.7048180     0.8827753
  H       -5.2189576    -1.9574950     0.0082383
