 30
#Generated by chemFileConvert.py
  N        0.9794900     0.3945220     0.0037520
  C        1.7090840    -0.7330260     0.0043320
  C        3.1114000    -0.6012720     0.0036700
  C        3.6121430     0.7002820     0.0024630
  N        2.9100650     1.8412100     0.0018610
  C        1.6037190     1.5915690     0.0025770
  N        4.1176120    -1.5390750     0.0039950
  C        5.2183820    -0.8061000     0.0029890
  N        4.9759810     0.5399970     0.0020430
  N        1.0968000    -1.9249870     0.0054940
  H        0.9410910     2.4478230     0.0021810
  H        6.2205540    -1.2009100     0.0028960
  H        5.6563230     1.2816100     0.0011980
  H        0.0828400    -1.9816270     0.0059740
  H        1.6634730    -2.7529150     0.0059330
  N       -4.0490308     1.5737860     0.0049619
  C       -4.7516338     0.3968740     0.0061829
  C       -4.1398758    -0.8083640     0.0068629
  C       -2.6843178    -0.8309450     0.0062589
  N       -2.0631778     0.4044880     0.0050229
  C       -2.6667388     1.6419870     0.0043159
  C       -4.8699458    -2.1098890     0.0081939
  O       -2.0244648    -1.8720220     0.0067959
  O       -2.0597948     2.6980780     0.0032309
  H       -4.5220378     2.4619880     0.0044699
  H       -1.0212208     0.4105490     0.0045759
  H       -5.8281378     0.4950070     0.0065669
  H       -4.6000858    -2.7003530    -0.8660021
  H       -4.5993258    -2.6989900     0.8830749
  H       -5.9464888    -1.9516670     0.0085379
