 30
#Generated by chemFileConvert.py
  N        0.9794900     0.3945220     0.0037520
  C        1.7090840    -0.7330260     0.0043320
  C        3.1114000    -0.6012720     0.0036700
  C        3.6121430     0.7002820     0.0024630
  N        2.9100650     1.8412100     0.0018610
  C        1.6037190     1.5915690     0.0025770
  N        4.1176120    -1.5390750     0.0039950
  C        5.2183820    -0.8061000     0.0029890
  N        4.9759810     0.5399970     0.0020430
  N        1.0968000    -1.9249870     0.0054940
  H        0.9410910     2.4478230     0.0021810
  H        6.2205540    -1.2009100     0.0028960
  H        5.6563230     1.2816100     0.0011980
  H        0.0828400    -1.9816270     0.0059740
  H        1.6634730    -2.7529150     0.0059330
  N       -3.8671480     1.5723290     0.0048870
  C       -4.5697510     0.3954170     0.0061080
  C       -3.9579930    -0.8098210     0.0067880
  C       -2.5024350    -0.8324020     0.0061840
  N       -1.8812950     0.4030310     0.0049480
  C       -2.4848560     1.6405300     0.0042410
  C       -4.6880630    -2.1113460     0.0081190
  O       -1.8425820    -1.8734790     0.0067210
  O       -1.8779120     2.6966210     0.0031560
  H       -4.3401550     2.4605310     0.0043950
  H       -0.8393380     0.4090920     0.0045010
  H       -5.6462550     0.4935500     0.0064920
  H       -4.4182030    -2.7018100    -0.8660770
  H       -4.4174430    -2.7004470     0.8830000
  H       -5.7646060    -1.9531240     0.0084630
