 30
#Generated by chemFileConvert.py
  N        0.9794900     0.3945220     0.0037520
  C        1.7090840    -0.7330260     0.0043320
  C        3.1114000    -0.6012720     0.0036700
  C        3.6121430     0.7002820     0.0024630
  N        2.9100650     1.8412100     0.0018610
  C        1.6037190     1.5915690     0.0025770
  N        4.1176120    -1.5390750     0.0039950
  C        5.2183820    -0.8061000     0.0029890
  N        4.9759810     0.5399970     0.0020430
  N        1.0968000    -1.9249870     0.0054940
  H        0.9410910     2.4478230     0.0021810
  H        6.2205540    -1.2009100     0.0028960
  H        5.6563230     1.2816100     0.0011980
  H        0.0828400    -1.9816270     0.0059740
  H        1.6634730    -2.7529150     0.0059330
  N       -3.7762066     1.5716005     0.0048496
  C       -4.4788096     0.3946885     0.0060706
  C       -3.8670516    -0.8105495     0.0067506
  C       -2.4114936    -0.8331305     0.0061466
  N       -1.7903536     0.4023025     0.0049106
  C       -2.3939146     1.6398015     0.0042036
  C       -4.5971216    -2.1120745     0.0080815
  O       -1.7516406    -1.8742075     0.0066836
  O       -1.7869706     2.6958925     0.0031185
  H       -4.2492136     2.4598025     0.0043575
  H       -0.7483966     0.4083635     0.0044636
  H       -5.5553136     0.4928215     0.0064546
  H       -4.3272616    -2.7025385    -0.8661144
  H       -4.3265016    -2.7011755     0.8829626
  H       -5.6736646    -1.9538525     0.0084256
