 28
#Generated by chemFileConvert.py
  C        0.0725940     1.5067370    -1.3669690
  H        0.2215340     2.4207620    -0.8089910
  C        1.1710610     0.8157330    -1.8758620
  H        2.1696810     1.1985830    -1.7158890
  C        0.9802270    -0.3710410    -2.5820540
  H        1.8318380    -0.9050000    -2.9835110
  C       -0.3088500    -0.8642060    -2.7821590
  H       -0.4574710    -1.7830820    -3.3337960
  C       -1.4066930    -0.1673420    -2.2794790
  H       -2.4067090    -0.5496760    -2.4337040
  C       -1.2163810     1.0185140    -1.5732130
  H       -2.0668030     1.5519150    -1.1718300
  N        1.6118822    -1.0111303     0.4727465
  C       -0.8462888     1.2013737     1.8089985
  C       -2.0327617     0.5233467     1.5806365
  C       -2.0475797    -0.7403393     0.9564105
  C       -0.8741767    -1.3499563     0.5413105
  C        0.3194683    -0.6612283     0.7648165
  C        0.3608792     0.6121027     1.3978955
  C        1.7307132     1.0037667     1.4531135
  C        2.4602583    -0.0072113     0.8700455
  H       -0.8490568     2.1676147     2.2969925
  H       -2.9690227     0.9651397     1.8946555
  H       -2.9922357    -1.2427443     0.7977545
  H       -0.8860567    -2.3171113     0.0560495
  H        2.1370503     1.9079947     1.8736135
  H        1.8833612    -1.8216033    -0.0548995
  H        3.5229553    -0.0951443     0.7181715
