 30
#Generated by chemFileConvert.py
  N        2.4391360    -0.3811340     0.9074280
  C        2.0126640    -0.7199630    -0.3140990
  C        0.7810510    -1.3865320    -0.4382190
  C        0.0832680    -1.6178420     0.7526760
  N        0.4680640    -1.2787430     1.9877850
  C        1.6588870    -0.6745430     1.9648180
  N        0.0960590    -1.8583560    -1.5320100
  C       -1.0067980    -2.3670250    -1.0048690
  N       -1.0632700    -2.2599550     0.3555520
  N        2.7882310    -0.4463520    -1.3936980
  H        2.0556860    -0.3749810     2.9265420
  H       -1.8030810    -2.8266990    -1.5661230
  H       -1.8393520    -2.5178170     0.9430390
  H        3.5190720     0.2275560    -1.2370500
  H        2.3038860    -0.3794990    -2.2746680
  N       -1.9251115     1.1734344     1.2140020
  C       -0.7516675     1.8775174     1.3268220
  C        0.0304775     2.1636284     0.2617990
  C       -0.3911345     1.6868444    -1.0473380
  N       -1.6152725     1.0089984    -1.0505920
  C       -2.4091414     0.6760584     0.0249800
  C        1.3013285     2.9385264     0.3596170
  O        0.2342175     1.8415314    -2.0868100
  O       -3.4265124     0.0075494    -0.0593580
  H       -2.4569854     0.9294184     2.0327590
  H       -1.9065315     0.6325324    -1.9426320
  H       -0.4928455     2.1890084     2.3284600
  H        2.1499286     2.3155614     0.0820340
  H        1.2795125     3.7905174    -0.3182230
  H        1.4578065     3.2953274     1.3756120
