 30
#Generated by chemFileConvert.py
  N        2.4391360    -0.3811340     0.9074280
  C        2.0126640    -0.7199630    -0.3140990
  C        0.7810510    -1.3865320    -0.4382190
  C        0.0832680    -1.6178420     0.7526760
  N        0.4680640    -1.2787430     1.9877850
  C        1.6588870    -0.6745430     1.9648180
  N        0.0960590    -1.8583560    -1.5320100
  C       -1.0067980    -2.3670250    -1.0048690
  N       -1.0632700    -2.2599550     0.3555520
  N        2.7882310    -0.4463520    -1.3936980
  H        2.0556860    -0.3749810     2.9265420
  H       -1.8030810    -2.8266990    -1.5661230
  H       -1.8393520    -2.5178170     0.9430390
  H        3.5190720     0.2275560    -1.2370500
  H        2.3038860    -0.3794990    -2.2746680
  N       -1.6952351     0.7543962     1.2190900
  C       -0.5217911     1.4584792     1.3319100
  C        0.2603539     1.7445902     0.2668870
  C       -0.1612581     1.2678062    -1.0422500
  N       -1.3853961     0.5899602    -1.0455040
  C       -2.1792651     0.2570202     0.0300680
  C        1.5312049     2.5194882     0.3647050
  O        0.4640939     1.4224932    -2.0817220
  O       -3.1966361    -0.4114888    -0.0542700
  H       -2.2271091     0.5103802     2.0378470
  H       -1.6766551     0.2134942    -1.9375440
  H       -0.2629691     1.7699702     2.3335480
  H        2.3798049     1.8965232     0.0871220
  H        1.5093889     3.3714792    -0.3131350
  H        1.6876829     2.8762892     1.3807000
