 30
#Generated by chemFileConvert.py
  N        2.4391360    -0.3811340     0.9074280
  C        2.0126640    -0.7199630    -0.3140990
  C        0.7810510    -1.3865320    -0.4382190
  C        0.0832680    -1.6178420     0.7526760
  N        0.4680640    -1.2787430     1.9877850
  C        1.6588870    -0.6745430     1.9648180
  N        0.0960590    -1.8583560    -1.5320100
  C       -1.0067980    -2.3670250    -1.0048690
  N       -1.0632700    -2.2599550     0.3555520
  N        2.7882310    -0.4463520    -1.3936980
  H        2.0556860    -0.3749810     2.9265420
  H       -1.8030810    -2.8266990    -1.5661230
  H       -1.8393520    -2.5178170     0.9430390
  H        3.5190720     0.2275560    -1.2370500
  H        2.3038860    -0.3794990    -2.2746680
  N       -1.5419842     0.4750374     1.2224821
  C       -0.3685402     1.1791204     1.3353021
  C        0.4136048     1.4652314     0.2702791
  C       -0.0080072     0.9884474    -1.0388579
  N       -1.2321452     0.3106014    -1.0421119
  C       -2.0260142    -0.0223386     0.0334601
  C        1.6844558     2.2401294     0.3680971
  O        0.6173448     1.1431344    -2.0783299
  O       -3.0433852    -0.6908476    -0.0508779
  H       -2.0738582     0.2310214     2.0412391
  H       -1.5234042    -0.0658646    -1.9341519
  H       -0.1097182     1.4906114     2.3369401
  H        2.5330558     1.6171644     0.0905141
  H        1.6626398     3.0921204    -0.3097429
  H        1.8409338     2.5969304     1.3840921
