 30
#Generated by chemFileConvert.py
  N        2.4391360    -0.3811340     0.9074280
  C        2.0126640    -0.7199630    -0.3140990
  C        0.7810510    -1.3865320    -0.4382190
  C        0.0832680    -1.6178420     0.7526760
  N        0.4680640    -1.2787430     1.9877850
  C        1.6588870    -0.6745430     1.9648180
  N        0.0960590    -1.8583560    -1.5320100
  C       -1.0067980    -2.3670250    -1.0048690
  N       -1.0632700    -2.2599550     0.3555520
  N        2.7882310    -0.4463520    -1.3936980
  H        2.0556860    -0.3749810     2.9265420
  H       -1.8030810    -2.8266990    -1.5661230
  H       -1.8393520    -2.5178170     0.9430390
  H        3.5190720     0.2275560    -1.2370500
  H        2.3038860    -0.3794990    -2.2746680
  N       -1.7718605     0.8940756     1.2173940
  C       -0.5984165     1.5981586     1.3302140
  C        0.1837285     1.8842696     0.2651910
  C       -0.2378835     1.4074856    -1.0439460
  N       -1.4620216     0.7296396    -1.0472000
  C       -2.2558906     0.3966996     0.0283720
  C        1.4545794     2.6591676     0.3630090
  O        0.3874685     1.5621726    -2.0834180
  O       -3.2732615    -0.2718094    -0.0559660
  H       -2.3037346     0.6500596     2.0361510
  H       -1.7532805     0.3531736    -1.9392400
  H       -0.3395945     1.9096496     2.3318520
  H        2.3031795     2.0362026     0.0854260
  H        1.4327635     3.5111586    -0.3148310
  H        1.6110575     3.0159686     1.3790040
