 30
#Generated by chemFileConvert.py
  N        2.4391360    -0.3811340     0.9074280
  C        2.0126640    -0.7199630    -0.3140990
  C        0.7810510    -1.3865320    -0.4382190
  C        0.0832680    -1.6178420     0.7526760
  N        0.4680640    -1.2787430     1.9877850
  C        1.6588870    -0.6745430     1.9648180
  N        0.0960590    -1.8583560    -1.5320100
  C       -1.0067980    -2.3670250    -1.0048690
  N       -1.0632700    -2.2599550     0.3555520
  N        2.7882310    -0.4463520    -1.3936980
  H        2.0556860    -0.3749810     2.9265420
  H       -1.8030810    -2.8266990    -1.5661230
  H       -1.8393520    -2.5178170     0.9430390
  H        3.5190720     0.2275560    -1.2370500
  H        2.3038860    -0.3794990    -2.2746680
  N       -1.3887333     0.1956786     1.2258741
  C       -0.2152893     0.8997616     1.3386941
  C        0.5668557     1.1858726     0.2736711
  C        0.1452437     0.7090886    -1.0354659
  N       -1.0788943     0.0312426    -1.0387199
  C       -1.8727633    -0.3016974     0.0368521
  C        1.8377067     1.9607706     0.3714891
  O        0.7705957     0.8637756    -2.0749379
  O       -2.8901343    -0.9702064    -0.0474859
  H       -1.9206073    -0.0483374     2.0446311
  H       -1.3701533    -0.3452234    -1.9307599
  H        0.0435327     1.2112527     2.3403321
  H        2.6863067     1.3378056     0.0939061
  H        1.8158907     2.8127616    -0.3063509
  H        1.9941847     2.3175716     1.3874841
