 28
#Generated by chemFileConvert.py
  C       -2.8566510     0.8254790     0.0002180
  H       -2.8595580     1.9069150     0.0004390
  C       -2.8562930     0.1289180    -1.2083150
  H       -2.8522570     0.6698180    -2.1444600
  C       -2.8554750    -1.2657500    -1.2087980
  H       -2.8529550    -1.8057330    -2.1454940
  C       -2.8547820    -1.9634350    -0.0005840
  H       -2.8542600    -3.0449100    -0.0008120
  C       -2.8540770    -1.2663820     1.2079830
  H       -2.8494660    -1.8069630     2.1443360
  C       -2.8551770     0.1282900     1.2083860
  H       -2.8508260     0.6685790     2.1448730
  H       -0.6310260    -0.6487160     0.0001440
  N        0.3753150    -0.6921000     0.0001430
  C        1.1135900    -1.8486200     0.0007290
  C        2.4552120    -1.5390540     0.0007470
  C        2.5508370    -0.1161050     0.0003980
  C        1.2191130     0.3866590     0.0000130
  C        0.9362890     1.7555870    -0.0004420
  C        2.0123970     2.6294810    -0.0004950
  C        3.3396690     2.1540840    -0.0001180
  C        3.6186290     0.7975520     0.0003210
  H        0.6232800    -2.8077610     0.0009640
  H        3.2642140    -2.2494580     0.0010310
  H       -0.0832030     2.1179760    -0.0007520
  H        1.8310200     3.6957800    -0.0008460
  H        4.1532550     2.8667860    -0.0001920
  H        4.6423570     0.4462320     0.0005810
