 28
#Generated by chemFileConvert.py
  C       -2.8566510     0.8254790     0.0002180
  H       -2.8595580     1.9069150     0.0004390
  C       -2.8562930     0.1289180    -1.2083150
  H       -2.8522570     0.6698180    -2.1444600
  C       -2.8554750    -1.2657500    -1.2087980
  H       -2.8529550    -1.8057330    -2.1454940
  C       -2.8547820    -1.9634350    -0.0005840
  H       -2.8542600    -3.0449100    -0.0008120
  C       -2.8540770    -1.2663820     1.2079830
  H       -2.8494660    -1.8069630     2.1443360
  C       -2.8551770     0.1282900     1.2083860
  H       -2.8508260     0.6685790     2.1448730
  H       -1.0759026    -0.6327355     0.0000782
  N       -0.0695616    -0.6761195     0.0000772
  C        0.6687134    -1.8326395     0.0006632
  C        2.0103354    -1.5230735     0.0006812
  C        2.1059604    -0.1001245     0.0003322
  C        0.7742364     0.4026395    -0.0000528
  C        0.4914124     1.7715675    -0.0005078
  C        1.5675204     2.6454615    -0.0005608
  C        2.8947924     2.1700645    -0.0001838
  C        3.1737524     0.8135325     0.0002552
  H        0.1784034    -2.7917805     0.0008982
  H        2.8193374    -2.2334775     0.0009652
  H       -0.5280796     2.1339565    -0.0008178
  H        1.3861434     3.7117605    -0.0009118
  H        3.7083784     2.8827665    -0.0002578
  H        4.1974804     0.4622125     0.0005152
