 28
#Generated by chemFileConvert.py
  C       -2.8566510     0.8254790     0.0002180
  H       -2.8595580     1.9069150     0.0004390
  C       -2.8562930     0.1289180    -1.2083150
  H       -2.8522570     0.6698180    -2.1444600
  C       -2.8554750    -1.2657500    -1.2087980
  H       -2.8529550    -1.8057330    -2.1454940
  C       -2.8547820    -1.9634350    -0.0005840
  H       -2.8542600    -3.0449100    -0.0008120
  C       -2.8540770    -1.2663820     1.2079830
  H       -2.8494660    -1.8069630     2.1443360
  C       -2.8551770     0.1282900     1.2083860
  H       -2.8508260     0.6685790     2.1448730
  H       -0.8534643    -0.6407257     0.0001111
  N        0.1528767    -0.6841097     0.0001101
  C        0.8911517    -1.8406297     0.0006961
  C        2.2327737    -1.5310637     0.0007141
  C        2.3283987    -0.1081147     0.0003651
  C        0.9966747     0.3946493    -0.0000199
  C        0.7138507     1.7635773    -0.0004749
  C        1.7899587     2.6374713    -0.0005279
  C        3.1172307     2.1620743    -0.0001509
  C        3.3961907     0.8055423     0.0002881
  H        0.4008417    -2.7997707     0.0009311
  H        3.0417757    -2.2414677     0.0009981
  H       -0.3056413     2.1259663    -0.0007849
  H        1.6085817     3.7037703    -0.0008789
  H        3.9308167     2.8747763    -0.0002249
  H        4.4199187     0.4542223     0.0005481
