 26
#Generated by chemFileConvert.py
  C        1.4400240    -0.1240470    -0.7915900
  C        2.1152370    -1.3026230    -1.1022060
  C        3.3499560    -1.5844800    -0.5239370
  C        3.9072610    -0.6725470     0.3717420
  C        3.2392030     0.5050790     0.6894510
  C        2.0012110     0.7842790     0.1087700
  O        1.3927520     1.9508930     0.4596400
  H        0.4811900     0.0903210    -1.2449350
  H        1.6693180    -1.9994350    -1.7990890
  H        3.8709060    -2.4994100    -0.7674890
  H        4.8663280    -0.8773850     0.8279070
  H        3.6587870     1.2198540     1.3834970
  H        0.5216160     1.9924070     0.0364790
  C       -1.4017106     0.1073272     1.0465211
  C       -2.0328596    -1.0861768     1.3814901
  C       -3.0946576    -1.5672128     0.6167511
  C       -3.5248256    -0.8449528    -0.4929209
  C       -2.8975646     0.3500672    -0.8398219
  C       -1.8399926     0.8194202    -0.0667529
  O       -1.1749866     1.9878962    -0.3685669
  H       -0.5767206     0.4908042     1.6306641
  H       -1.6893746    -1.6407228     2.2435651
  H       -3.5804696    -2.4949658     0.8825261
  H       -4.3471876    -1.2069468    -1.0942089
  H       -3.2285786     0.9111362    -1.7055669
  H       -1.5992266     2.3933252    -1.1326169
