 26
#Generated by chemFileConvert.py
  C        1.4400240    -0.1240470    -0.7915900
  C        2.1152370    -1.3026230    -1.1022060
  C        3.3499560    -1.5844800    -0.5239370
  C        3.9072610    -0.6725470     0.3717420
  C        3.2392030     0.5050790     0.6894510
  C        2.0012110     0.7842790     0.1087700
  O        1.3927520     1.9508930     0.4596400
  H        0.4811900     0.0903210    -1.2449350
  H        1.6693180    -1.9994350    -1.7990890
  H        3.8709060    -2.4994100    -0.7674890
  H        4.8663280    -0.8773850     0.8279070
  H        3.6587870     1.2198540     1.3834970
  H        0.5216160     1.9924070     0.0364790
  C       -1.2131992     0.1078284     1.0915262
  C       -1.8443482    -1.0856756     1.4264952
  C       -2.9061462    -1.5667116     0.6617562
  C       -3.3363142    -0.8444516    -0.4479158
  C       -2.7090532     0.3505684    -0.7948168
  C       -1.6514812     0.8199214    -0.0217478
  O       -0.9864752     1.9883974    -0.3235618
  H       -0.3882092     0.4913054     1.6756692
  H       -1.5008632    -1.6402216     2.2885702
  H       -3.3919582    -2.4944646     0.9275312
  H       -4.1586762    -1.2064456    -1.0492038
  H       -3.0400672     0.9116374    -1.6605618
  H       -1.4107152     2.3938264    -1.0876118
