 26
#Generated by chemFileConvert.py
  C        1.4400240    -0.1240470    -0.7915900
  C        2.1152370    -1.3026230    -1.1022060
  C        3.3499560    -1.5844800    -0.5239370
  C        3.9072610    -0.6725470     0.3717420
  C        3.2392030     0.5050790     0.6894510
  C        2.0012110     0.7842790     0.1087700
  O        1.3927520     1.9508930     0.4596400
  H        0.4811900     0.0903210    -1.2449350
  H        1.6693180    -1.9994350    -1.7990890
  H        3.8709060    -2.4994100    -0.7674890
  H        4.8663280    -0.8773850     0.8279070
  H        3.6587870     1.2198540     1.3834970
  H        0.5216160     1.9924070     0.0364790
  C       -1.6844777     0.1065754     0.9790135
  C       -2.3156267    -1.0869286     1.3139824
  C       -3.3774247    -1.5679646     0.5492434
  C       -3.8075927    -0.8457046    -0.5604286
  C       -3.1803317     0.3493154    -0.9073296
  C       -2.1227597     0.8186684    -0.1342606
  O       -1.4577537     1.9871444    -0.4360746
  H       -0.8594877     0.4900524     1.5631564
  H       -1.9721417    -1.6414746     2.1760575
  H       -3.8632367    -2.4957176     0.8150184
  H       -4.6299547    -1.2076986    -1.1617165
  H       -3.5113457     0.9103844    -1.7730746
  H       -1.8819937     2.3925734    -1.2001245
