 12
#Generated by chemFileConvert.py
  C        0.6750580    -0.0761590    -0.0272750
  O        0.0077870    -1.1089010    -0.0468170
  N        0.1170350     1.1557430    -0.0554810
  H       -0.8913720     1.2290140    -0.0518540
  H        0.6832920     1.9787020     0.0043750
  C        2.1811170    -0.1190540     0.0442350
  H        2.4694230    -0.4510310     1.0394930
  H        2.6467660     0.8420370    -0.1578070
  H        2.5407800    -0.8559110    -0.6676450
  O       -1.7735204     0.2740814     0.0764128
  H       -1.0527314    -0.3757536     0.0059898
  H       -2.4729904    -0.0761637    -0.4766162
