 11
#Generated by chemFileConvert.py
  C        0.6685720     0.0943720     0.0084860
  O        0.0581310     1.1488060     0.0107950
  O        0.0769400    -1.1058820     0.0165040
  H       -0.8946940    -0.9526870     0.0168670
  C        2.1625890    -0.0199270    -0.0063000
  H        2.6052610     0.9684490     0.0152530
  H        2.4925930    -0.6016890     0.8509300
  H        2.4746980    -0.5516700    -0.9021960
  O       -2.1496292    -0.2347046    -0.0727490
  H       -2.8256852    -0.1204666     0.5975090
  H       -1.5853382     0.5506864    -0.0038370
