  8
#Generated by chemFileConvert.py
 Br        1.2493590    -0.9207280    -0.0786620
 Br       -1.7724650     0.1373960    -0.1045800
  C       -0.0926810     0.1234600     0.8187350
  H        0.2743950     1.1397100     0.8696070
  H       -0.2508910    -0.3175030     1.7932000
  O        1.5260830     2.2886644     0.1680726
  H        1.9340880     1.6020334    -0.3656624
  H        1.5693210     3.0699084    -0.3868214
