  8
#Generated by chemFileConvert.py
 Br        1.2493590    -0.9207280    -0.0786620
 Br       -1.7724650     0.1373960    -0.1045800
  C       -0.0926810     0.1234600     0.8187350
  H        0.2743950     1.1397100     0.8696070
  H       -0.2508910    -0.3175030     1.7932000
  O        1.3696220     2.1450451     0.2557644
  H        1.7776270     1.4584141    -0.2779706
  H        1.4128600     2.9262891    -0.2991296
