  8
#Generated by chemFileConvert.py
 Cl       -0.2899770     1.4042270    -0.1360740
 Cl        1.7033860    -0.7529810    -0.1981000
  C        0.3651430    -0.0209000     0.6943770
  H       -0.4335820    -0.7457680     0.7774460
  H        0.7361990     0.3010960     1.6581290
  O       -2.6012040    -1.0749880     0.0115810
  H       -2.5458730    -0.2606440    -0.4949500
  H       -3.1659230    -1.6405640    -0.5185620
