  8
#Generated by chemFileConvert.py
  F        1.9864880    -0.3544060    -0.0000610
  F        0.2447290     0.9900960    -0.0000010
  C        0.6324600    -0.3162820     0.0001570
  H        0.2611190    -0.7865980     0.9041200
  H        0.2608130    -0.7869080    -0.9035160
  O       -1.4707887    -0.3200935     0.0000429
  H       -2.4282627    -0.2708865    -0.0007131
  H       -1.1891497     0.5979525    -0.0001331
