  8
#Generated by chemFileConvert.py
  F        1.9864880    -0.3544060    -0.0000610
  F        0.2447290     0.9900960    -0.0000010
  C        0.6324600    -0.3162820     0.0001570
  H        0.2611190    -0.7865980     0.9041200
  H        0.2608130    -0.7869080    -0.9035160
  O       -2.2219489    -0.3214548     0.0000022
  H       -3.1794229    -0.2722478    -0.0007539
  H       -1.9403100     0.5965913    -0.0001738
