  8
#Generated by chemFileConvert.py
  F        1.9864880    -0.3544060    -0.0000610
  F        0.2447290     0.9900960    -0.0000010
  C        0.6324600    -0.3162820     0.0001570
  H        0.2611190    -0.7865980     0.9041200
  H        0.2608130    -0.7869080    -0.9035160
  O       -1.7712528    -0.3206380     0.0000266
  H       -2.7287268    -0.2714310    -0.0007294
  H       -1.4896138     0.5974080    -0.0001494
