 30
#Generated by chemFileConvert.py
  C        2.2439710    -0.6979210    -0.9417550
  H        1.2918560    -1.0710580    -0.5862340
  H        2.3673650    -1.0227120    -1.9665140
  C        2.2852430     0.8638700    -0.8166760
  H        1.3468430     1.2273380    -0.4175140
  H        2.4451780     1.3389670    -1.7756040
  C        3.4408340     1.1780720     0.1760540
  H        3.2395840     2.0568800     0.7751250
  H        4.3634260     1.3413230    -0.3703900
  C        3.5735080    -0.1084670     1.0197620
  H        2.7716460    -0.1548060     1.7496210
  H        4.5203210    -0.1735170     1.5408880
  C        3.3892580    -1.2239830    -0.0316540
  H        3.1556990    -2.1850850     0.4082180
  H        4.3029680    -1.3244920    -0.6075160
  C       -3.2581100     1.1955520    -0.2807160
  H       -2.9389810     1.2714550    -1.3147870
  H       -3.6839470     2.1452510     0.0169640
  C       -4.2468120     0.0189090    -0.1389190
  H       -5.0053280     0.0092140    -0.9114570
  H       -4.7372200     0.0674490     0.8280090
  C       -3.3188340    -1.2152450    -0.1977480
  H       -3.0553510    -1.4117430    -1.2311150
  H       -3.7785340    -2.1060260     0.2104760
  C       -2.0503070    -0.7880340     0.6002740
  H       -1.1505810    -1.1724980     0.1387100
  H       -2.0950690    -1.1722060     1.6114290
  C       -2.0609130     0.7785860     0.6147690
  H       -1.1268940     1.1908280     0.2569390
  H       -2.2200110     1.1373950     1.6244100
