 30
#Generated by chemFileConvert.py
  C        2.2439710    -0.6979210    -0.9417550
  H        1.2918560    -1.0710580    -0.5862340
  H        2.3673650    -1.0227120    -1.9665140
  C        2.2852430     0.8638700    -0.8166760
  H        1.3468430     1.2273380    -0.4175140
  H        2.4451780     1.3389670    -1.7756040
  C        3.4408340     1.1780720     0.1760540
  H        3.2395840     2.0568800     0.7751250
  H        4.3634260     1.3413230    -0.3703900
  C        3.5735080    -0.1084670     1.0197620
  H        2.7716460    -0.1548060     1.7496210
  H        4.5203210    -0.1735170     1.5408880
  C        3.3892580    -1.2239830    -0.0316540
  H        3.1556990    -2.1850850     0.4082180
  H        4.3029680    -1.3244920    -0.6075160
  C       -3.1352056     1.1990007    -0.3157009
  H       -2.8160766     1.2749038    -1.3497719
  H       -3.5610426     2.1486998    -0.0180209
  C       -4.1239077     0.0223578    -0.1739039
  H       -4.8824237     0.0126628    -0.9464419
  H       -4.6143156     0.0708977     0.7930241
  C       -3.1959296    -1.2117962    -0.2327329
  H       -2.9324466    -1.4082942    -1.2660999
  H       -3.6556296    -2.1025772     0.1754911
  C       -1.9274026    -0.7845853     0.5652891
  H       -1.0276767    -1.1690493     0.1037251
  H       -1.9721646    -1.1687573     1.5764441
  C       -1.9380086     0.7820348     0.5797841
  H       -1.0039896     1.1942767     0.2219541
  H       -2.0971066     1.1408437     1.5894251
