 18
#Generated by chemFileConvert.py
  C       -0.6535200     1.1883450    -0.3957920
  H        0.2950100     1.2939940    -0.9237470
  H       -1.1902020     2.1319960    -0.4780160
  C       -1.4158680    -0.0012300    -0.9767790
  H       -1.4460590    -0.0025690    -2.0651730
  H       -2.4451720    -0.0007720    -0.6095530
  C       -0.6534860    -1.1893360    -0.3928420
  H        0.2950550    -1.2963160    -0.9205000
  H       -1.1901800    -2.1331820    -0.4726950
  C       -0.4007020    -0.7749100     1.0668040
  H        0.5258820    -1.1973660     1.4546920
  H       -1.2008000    -1.1462200     1.7059650
  C       -0.4008360     0.7775210     1.0648880
  H        0.5255670     1.2011370     1.4520080
  H       -1.2010840     1.1502930     1.7030110
  O        2.2527409    -0.0016711    -0.1001893
  H        1.7489839     0.0032459     0.7169367
  H        3.1650059     0.0009529     0.1969607
