 18
#Generated by chemFileConvert.py
  C       -1.7776840    -1.3597070     0.5388010
  C       -1.7776340     1.3597280     0.5387560
  S       -1.9221010    -0.0000060    -0.6397180
  H       -2.6036640    -1.3431650     1.2470460
  H       -1.8157370    -2.2891650    -0.0242620
  H       -0.8297800    -1.2956650     1.0696050
  H       -2.6036140     1.3432400     1.2470010
  H       -0.8297320     1.2956710     1.0695620
  H       -1.8156540     2.2891690    -0.0243390
  C        1.7776600     1.3597230    -0.5387560
  C        1.7776780    -1.3597130    -0.5388030
  S        1.9220880    -0.0000140     0.6397190
  H        0.8297680     1.2956760    -1.0695810
  H        1.8156790     2.2891630     0.0243400
  H        2.6036530     1.3432270    -1.2469860
  H        0.8297810    -1.2956670    -1.0696190
  H        2.6036660    -1.3431760    -1.2470370
  H        1.8157200    -2.2891720     0.0242610
