 18
#Generated by chemFileConvert.py
  C       -1.7776840    -1.3597070     0.5388010
  C       -1.7776340     1.3597280     0.5387560
  S       -1.9221010    -0.0000060    -0.6397180
  H       -2.6036640    -1.3431650     1.2470460
  H       -1.8157370    -2.2891650    -0.0242620
  H       -0.8297800    -1.2956650     1.0696050
  H       -2.6036140     1.3432400     1.2470010
  H       -0.8297320     1.2956710     1.0695620
  H       -1.8156540     2.2891690    -0.0243390
  C        1.5998936     1.3597233    -0.4848781
  C        1.5999116    -1.3597127    -0.4849251
  S        1.7443216    -0.0000137     0.6935969
  H        0.6520016     1.2956763    -1.0157031
  H        1.6379126     2.2891633     0.0782179
  H        2.4258866     1.3432273    -1.1931081
  H        0.6520146    -1.2956667    -1.0157411
  H        2.4258996    -1.3431757    -1.1931591
  H        1.6379536    -2.2891717     0.0781389
