 18
#Generated by chemFileConvert.py
  C       -1.7776840    -1.3597070     0.5388010
  C       -1.7776340     1.3597280     0.5387560
  S       -1.9221010    -0.0000060    -0.6397180
  H       -2.6036640    -1.3431650     1.2470460
  H       -1.8157370    -2.2891650    -0.0242620
  H       -0.8297800    -1.2956650     1.0696050
  H       -2.6036140     1.3432400     1.2470010
  H       -0.8297320     1.2956710     1.0695620
  H       -1.8156540     2.2891690    -0.0243390
  C        2.1331928     1.3597225    -0.6465118
  C        2.1332108    -1.3597135    -0.6465588
  S        2.2776208    -0.0000145     0.5319632
  H        1.1853008     1.2956755    -1.1773368
  H        2.1712118     2.2891624    -0.0834158
  H        2.9591858     1.3432264    -1.3547418
  H        1.1853138    -1.2956675    -1.1773748
  H        2.9591988    -1.3431765    -1.3547928
  H        2.1712528    -2.2891726    -0.0834948
