 18
#Generated by chemFileConvert.py
  C       -3.6486370     0.3238700     0.5058490
  C       -2.3691580     0.6555130     0.8986810
  N       -1.5412860     0.0481980    -0.0054800
  C       -2.3329380    -0.6126090    -0.8892780
  N       -3.6218850    -0.4693180    -0.6125190
  H       -0.5186620     0.0778700    -0.0112420
  H       -4.5761090     0.6145920     0.9679880
  H       -1.9921230     1.2494330     1.7113600
  H       -1.9283710    -1.1779520    -1.7110110
  C        2.2891910     0.9408750    -0.5948790
  C        3.5884530     0.5508260    -0.3704110
  N        3.4937320    -0.5951610     0.3748460
  C        2.1765800    -0.8565900     0.5731830
  N        1.4167200     0.0605390    -0.0047210
  H        4.2626660    -1.1468220     0.7149500
  H        1.9412760     1.7978320    -1.1436840
  H        4.5324850     0.9708720    -0.6638580
  H        1.8269170    -1.7069470     1.1317430
