 18
#Generated by chemFileConvert.py
  C       -3.6486370     0.3238700     0.5058490
  C       -2.3691580     0.6555130     0.8986810
  N       -1.5412860     0.0481980    -0.0054800
  C       -2.3329380    -0.6126090    -0.8892780
  N       -3.6218850    -0.4693180    -0.6125190
  H       -0.5186620     0.0778700    -0.0112420
  H       -4.5761090     0.6145920     0.9679880
  H       -1.9921230     1.2494330     1.7113600
  H       -1.9283710    -1.1779520    -1.7110110
  C        2.1924219     0.9417416    -0.5952051
  C        3.4916839     0.5516926    -0.3707371
  N        3.3969629    -0.5942945     0.3745199
  C        2.0798109    -0.8557234     0.5728570
  N        1.3199509     0.0614056    -0.0050471
  H        4.1658969    -1.1459554     0.7146240
  H        1.8445069     1.7986986    -1.1440100
  H        4.4357159     0.9717385    -0.6641840
  H        1.7301479    -1.7060804     1.1314169
