 18
#Generated by chemFileConvert.py
  C       -3.6486370     0.3238700     0.5058490
  C       -2.3691580     0.6555130     0.8986810
  N       -1.5412860     0.0481980    -0.0054800
  C       -2.3329380    -0.6126090    -0.8892780
  N       -3.6218850    -0.4693180    -0.6125190
  H       -0.5186620     0.0778700    -0.0112420
  H       -4.5761090     0.6145920     0.9679880
  H       -1.9921230     1.2494330     1.7113600
  H       -1.9283710    -1.1779520    -1.7110110
  C        2.0956528     0.9426081    -0.5955311
  C        3.3949148     0.5525591    -0.3710631
  N        3.3001938    -0.5934279     0.3741939
  C        1.9830418    -0.8548569     0.5725309
  N        1.2231818     0.0622721    -0.0053731
  H        4.0691278    -1.1450889     0.7142979
  H        1.7477378     1.7995651    -1.1443361
  H        4.3389468     0.9726051    -0.6645101
  H        1.6333788    -1.7052139     1.1310909
