 18
#Generated by chemFileConvert.py
  C       -3.6486370     0.3238700     0.5058490
  C       -2.3691580     0.6555130     0.8986810
  N       -1.5412860     0.0481980    -0.0054800
  C       -2.3329380    -0.6126090    -0.8892780
  N       -3.6218850    -0.4693180    -0.6125190
  H       -0.5186620     0.0778700    -0.0112420
  H       -4.5761090     0.6145920     0.9679880
  H       -1.9921230     1.2494330     1.7113600
  H       -1.9283710    -1.1779520    -1.7110110
  C        1.7085764     0.9460743    -0.5968353
  C        3.0078384     0.5560253    -0.3723673
  N        2.9131174    -0.5899617     0.3728897
  C        1.5959654    -0.8513907     0.5712267
  N        0.8361054     0.0657383    -0.0066773
  H        3.6820514    -1.1416227     0.7129937
  H        1.3606614     1.8030313    -1.1456403
  H        3.9518704     0.9760713    -0.6658143
  H        1.2463024    -1.7017477     1.1297867
