 18
#Generated by chemFileConvert.py
  C       -3.6486370     0.3238700     0.5058490
  C       -2.3691580     0.6555130     0.8986810
  N       -1.5412860     0.0481980    -0.0054800
  C       -2.3329380    -0.6126090    -0.8892780
  N       -3.6218850    -0.4693180    -0.6125190
  H       -0.5186620     0.0778700    -0.0112420
  H       -4.5761090     0.6145920     0.9679880
  H       -1.9921230     1.2494330     1.7113600
  H       -1.9283710    -1.1779520    -1.7110110
  C        2.3859601     0.9400084    -0.5945530
  C        3.6852221     0.5499595    -0.3700849
  N        3.5905011    -0.5960276     0.3751721
  C        2.2733491    -0.8574565     0.5735090
  N        1.5134891     0.0596725    -0.0043949
  H        4.3594351    -1.1476886     0.7152760
  H        2.0380451     1.7969655    -1.1433579
  H        4.6292541     0.9700054    -0.6635319
  H        1.9236861    -1.7078136     1.1320690
