 10
#Generated by chemFileConvert.py
  C       -2.1009020     0.0000000     0.0000000
  H       -1.7389370    -0.1758160     1.0081690
  H       -1.7392510    -0.7852050    -0.6565040
  H       -1.7393740     0.9611400    -0.3519130
  H       -3.1863370    -0.0001190     0.0002470
  C        2.1007830     0.0000000     0.0000000
  H        2.4623390    -0.1759150     1.0082560
  H        2.4632730    -0.7851660    -0.6560210
  H        2.4635780     0.9607660    -0.3515090
  H        1.0154210     0.0003150    -0.0007230
