 10
#Generated by chemFileConvert.py
  C       -2.1009020     0.0000000     0.0000000
  H       -1.7389370    -0.1758160     1.0081690
  H       -1.7392510    -0.7852050    -0.6565040
  H       -1.7393740     0.9611400    -0.3519130
  H       -3.1863370    -0.0001190     0.0002470
  C        2.4124153     0.0000315    -0.0000723
  H        2.7739713    -0.1758835     1.0081837
  H        2.7749053    -0.7851345    -0.6560933
  H        2.7752103     0.9607975    -0.3515813
  H        1.3270533     0.0003465    -0.0007953
