 10
#Generated by chemFileConvert.py
  C       -2.1009020     0.0000000     0.0000000
  H       -1.7389370    -0.1758160     1.0081690
  H       -1.7392510    -0.7852050    -0.6565040
  H       -1.7393740     0.9611400    -0.3519130
  H       -3.1863370    -0.0001190     0.0002470
  C        2.2565991     0.0000158    -0.0000362
  H        2.6181552    -0.1758992     1.0082199
  H        2.6190892    -0.7851503    -0.6560571
  H        2.6193942     0.9607817    -0.3515452
  H        1.1712372     0.0003308    -0.0007591
