 15
#Generated by chemFileConvert.py
  N        0.2832030     0.4148080     0.0199500
  H        1.1664880     0.9259590     0.0283340
  C       -0.8977090     1.1733340     0.0088710
  O       -0.8550450     2.3905530     0.0203100
  C       -2.1084080     0.3671100    -0.0155600
  H       -3.0613690     0.8672060    -0.0285530
  C       -2.0185380    -0.9769940    -0.0211430
  H       -2.8851150    -1.6207790    -0.0389230
  N       -0.8057430    -1.6165270    -0.0037030
  H       -0.7430340    -2.6206670    -0.0087810
  C        0.4036650    -0.9513580     0.0174040
  O        1.4706620    -1.5513800     0.0330110
  O        2.6249179     0.5560818    -0.0810279
  H        2.4297199    -0.3880942     0.0082711
  H        3.3724179     0.7136468     0.4975101
