9

  C        0.4248290    -0.0861890    -0.1334280
  H        1.4717150    -0.3041150    -0.3949010
  O       -0.4393130    -0.9447410    -0.1183150
  N        0.2382420     1.2212370     0.1583970
  H       -0.6837160     1.5287170     0.4109440
  H        1.0014000     1.8771100     0.1251610
  O        2.3082144     2.8543964     0.0398834
  H        2.6637274     3.2885434    -0.7382476
  H        2.9692404     3.0076174     0.7180634
