8

  C        0.4879020    -0.4141860    -0.0056850
  H        1.0964210     0.4841280     0.1208420
  O        0.9542050    -1.5261430    -0.1384090
  O       -0.8045750    -0.1056060     0.0091560
  H       -1.3082840    -0.9438980    -0.1110890
  O       -1.5932479    -2.5958017    -0.4347949
  H       -0.6373039    -2.7245147    -0.3553948
  H       -1.9886539    -3.2756907     0.1137432
