8

  C        0.4879020    -0.4141860    -0.0056850
  H        1.0964210     0.4841280     0.1208420
  O        0.9542050    -1.5261430    -0.1384090
  O       -0.8045750    -0.1056060     0.0091560
  H       -1.3082840    -0.9438980    -0.1110890
  O       -1.5782498    -2.5088594    -0.4177577
  H       -0.6223058    -2.6375724    -0.3383577
  H       -1.9736558    -3.1887484     0.1307803
