8

  C        0.4879020    -0.4141860    -0.0056850
  H        1.0964210     0.4841280     0.1208420
  O        0.9542050    -1.5261430    -0.1384090
  O       -0.8045750    -0.1056060     0.0091560
  H       -1.3082840    -0.9438980    -0.1110890
  O       -1.6082460    -2.6827440    -0.4518320
  H       -0.6523020    -2.8114570    -0.3724320
  H       -2.0036520    -3.3626330     0.0967060
