7

  C       -1.5224130     1.6530620    -0.0569820
  O       -0.9741010     2.5296360     0.5800520
  H       -2.4579460     1.8381320    -0.6005790
  H       -1.1013590     0.6399670    -0.1129030
  O       -2.6999784     3.9062911    -0.0888195
  H       -2.7687454     4.8271711     0.1662395
  H       -1.8888414     3.6040331     0.3369945
