12

  C        0.2736120    -0.4126710    -0.2381980
  C       -0.1083480     0.9775550    -0.6993940
  O       -0.7088850    -0.9781260     0.6333440
  H        0.3315300    -1.0956110    -1.0818510
  H        1.2523080    -0.4049760     0.2460200
  H        0.6327390     1.3671080    -1.3959350
  H       -0.7782770    -0.4015070     1.3999230
  H       -0.1647950     1.6640430     0.1454500
  H       -1.0772320     0.9607270    -1.1930710
  O       -0.0108975    -2.8724835     0.9361878
  H       -0.4471555    -2.0152665     0.8432698
  H       -0.7183225    -3.5035405     0.7974238
