12

  C        0.2736120    -0.4126710    -0.2381980
  C       -0.1083480     0.9775550    -0.6993940
  O       -0.7088850    -0.9781260     0.6333440
  H        0.3315300    -1.0956110    -1.0818510
  H        1.2523080    -0.4049760     0.2460200
  H        0.6327390     1.3671080    -1.3959350
  H       -0.7782770    -0.4015070     1.3999230
  H       -0.1647950     1.6640430     0.1454500
  H       -1.0772320     0.9607270    -1.1930710
  O        0.2383837    -3.5490397     1.0443463
  H       -0.1978743    -2.6918228     0.9514283
  H       -0.4690413    -4.1800967     0.9055823
