15

  C        0.2717040     0.0549700    -0.1737090
  C       -0.5181310     1.2980190    -0.5165200
  C        0.9794340     0.1722770     1.1619520
  O       -0.6744060    -1.0262820    -0.1474490
  H        1.0064380    -0.1331710    -0.9622700
  H        0.1444510     2.1590320    -0.5824970
  H        0.2525720     0.3600450     1.9508410
  H        1.5211530    -0.7433260     1.4013980
  H        1.6983350     0.9902300     1.1456490
  H       -0.2006760    -1.8169060     0.1302660
  H       -1.2604600     1.4867830     0.2578850
  H       -1.0266610     1.1749320    -1.4697350
  O       -1.7482540    -1.2054040    -2.8490530
  H       -2.6907380    -1.3758490    -2.8207330
  H       -1.4851640    -1.2127290    -1.9185250
