10

  C        0.2521620     0.2193600    -0.0995330
  H        1.1525690     0.5638170    -0.6104930
  N        0.0398380    -0.9886700     0.2715040
  H        0.8327690    -1.5602630    -0.0003990
  N       -0.6736130     1.2090290     0.0684490
  H       -1.4340750     0.9786410     0.6857080
  H       -0.3438890     2.1601670     0.0899800
  O        0.4886815     3.9559805    -0.0936360
  H        0.3061005     4.5542365    -0.8210810
  H        0.9608595     4.4974025     0.5420930
