16

  N       -1.1922080     0.4561740     0.1742830
  C       -2.2025490     1.3377490     0.2334740
  C       -3.5410900     0.9438910     0.0629890
  C       -3.8260750    -0.3886340    -0.1686390
  C       -2.7791550    -1.3099840    -0.2212040
  C       -1.4904740    -0.8339110    -0.0440790
  H       -4.3307470     1.6804500     0.1210790
  H       -4.8507410    -0.7072880    -0.3027320
  H       -2.9559730    -2.3604190    -0.3954320
  H       -0.6444450    -1.5090600    -0.0792640
  N       -1.8770960     2.6414460     0.5269500
  H       -2.5361760     3.3389530     0.2296630
  H       -0.9041700     2.8835890     0.3902660
  O        1.2733130     2.1401210     0.2564851
  H        0.7148380     1.3425860     0.2104571
  H        1.9024970     2.0355530    -0.4587809
