15

  O        0.7546120     1.4413620    -0.3338880
  N        1.2376190    -0.7532670     0.0980430
  C        3.9106270    -0.2669780     0.0392410
  C        3.4437470    -1.5812650     0.2796330
  C        2.0945660    -1.7850350     0.3009290
  C        1.6113050     0.5647370    -0.1506340
  C        3.0365410     0.7651620    -0.1671340
  H        4.9748380    -0.0732140     0.0175900
  H        4.1179260    -2.4057540     0.4433450
  H        1.6411240    -2.7488790     0.4776550
  H        3.3807160     1.7713970    -0.3524200
  H        0.2295230    -0.9128980     0.1054750
  O       -1.6006585    -0.0565558    -0.0864755
  H       -1.0251425     0.7150872    -0.2489725
  H       -2.2845275    -0.0049458    -0.7556075
