19

  C       -1.0810420     2.4173600    -1.1411160
  C        0.4436620    -1.2195190     0.5959540
  C       -0.9010490    -1.1249490     0.2521010
  C        1.2959480    -0.1370470     0.3939300
  C       -1.3914710     0.0571960    -0.2990920
  C        0.7884220     1.0337560    -0.1585780
  C       -0.5579060     1.1545550    -0.5163180
  O        0.9828870    -2.3616460     1.1429450
  H       -1.5646250    -1.9660200     0.4152370
  H        0.2724970    -2.9985500     1.2711470
  H        2.3359480    -0.2214900     0.6775670
  H       -2.4402920     0.1226250    -0.5597150
  H        1.4553000     1.8736600    -0.3085200
  H       -0.6071160     3.2955960    -0.7057960
  H       -2.1566250     2.5075990    -1.0010470
  H       -0.8834790     2.4342930    -2.2135700
  O        3.6494594    -2.0421251     1.8533475
  H        4.1817594    -2.7010191     1.4049055
  H        2.7439134    -2.3128741     1.6656605
