16

  C       -0.4709160     1.8084180     1.0306370
  C        0.1038240    -0.3004500    -0.0736520
  N       -0.0497170     0.4163010     1.0293710
  N       -0.1305230     0.2473380    -1.2678920
  N        0.4936150    -1.5718500     0.0150120
  H        0.1438650    -0.0576120     1.9028390
  H       -0.4242680     1.2028990    -1.3495390
  H       -0.0181930    -0.2840810    -2.1118240
  H        0.6666300    -1.9705130     0.9269900
  H        0.6173000    -2.1359410    -0.8050710
  H       -1.4629730     1.9178360     0.5955940
  H        0.2431160     2.4341230     0.4976570
  H       -0.5137660     2.1452210     2.0596540
  O        0.7181596    -1.7399721     3.0378717
  H        0.0999336    -2.2096941     3.6066057
  H        1.5485926    -1.7713651     3.5233587
