11

  C       -0.2047460     0.7333530     0.0863130
  C        0.3288320    -0.6818550    -0.0991170
  H       -1.2928670     0.7508490     0.0991430
  H        0.1354210     1.1631000     1.0282190
  H        0.1183480     1.3862730    -0.7241730
  H       -0.0035140    -1.3326750     0.7071990
  H       -0.0205030    -1.1106380    -1.0362810
  H        1.4165940    -0.6949440    -0.1113830
  O        3.0557277     1.4069075     0.1403008
  H        2.1305577     1.6587194     0.1813998
  H        3.5216616     2.2390904     0.2417968
