7

  C        4.4808570     0.0330350    -0.0233560
  H        5.4992940     0.3176390    -0.1242130
  C        3.3170600    -0.2852430     0.0933110
  H        2.2957880    -0.5584680     0.1969300
  O        4.7676530    -2.4449620     2.3758470
  H        4.5234580    -1.7959810     1.7096870
  H        4.9334110    -3.2384520     1.8638740
