 18
#Generated by chemFileConvert.py
  C       -1.5753600    -0.0067190     1.5630840
  C        0.0428920    -0.2176340    -2.4307600
  C        0.1346180    -1.3155750    -1.5771500
  C       -0.5974870     0.9401570    -1.9933790
  C       -0.4070040    -1.2502330    -0.2940880
  C       -1.1355520     0.9986060    -0.7091080
  C       -1.0451140    -0.0916550     0.1605010
  H        0.4608250    -0.2663550    -3.4265970
  H        0.6243240    -2.2210500    -1.9086150
  H       -0.6815250     1.7945140    -2.6514170
  H       -0.3330170    -2.1069960     0.3641480
  H       -1.6318480     1.9013900    -0.3754210
  H       -1.9293050    -0.9762040     1.9088640
  H       -2.3977700     0.7029710     1.6296260
  H       -0.7919190     0.3243600     2.2458420
  O        2.0832615     0.7251891     0.4162127
  H        1.4228315     0.1579801     0.0059387
  H        1.9692915     1.5544841    -0.0520343
